644
592nano.out 0 0 0
C 22.6777 21.9313 16.645
C 20.5213 23.1473 16.7189
C 21.9748 20.7056 16.386
C 24.1069 21.9432 16.6653
C 19.8199 21.9164 16.486
C 19.798 24.3787 16.7985
C 29.0843 25.7187 16.5093
C 29.051 28.1986 16.5102
C 28.3815 24.475 16.5617
C 20.438 30.5926 16.8396
C 22.5659 31.8631 16.7799
C 19.742 29.344 16.8748
C 28.3265 29.4292 16.589
C 23.9981 31.8742 16.7691
C 24.8318 20.7208 16.4823
C 21.9521 23.1602 16.7798
C 18.3703 24.3669 16.6835
C 26.9608 21.9828 16.5099
C 28.3557 26.9524 16.617
C 18.3475 26.8419 16.7552
C 21.868 30.6138 16.8984
C 20.5419 20.7045 16.281
C 29.1036 23.2447 16.4106
C 26.2425 23.2099 16.6887
C 19.7691 26.86 16.9059
C 26.166 30.6513 16.7616
C 18.3156 29.3202 16.7264
C 30.5017 25.7253 16.2644
C 26.8623 31.8929 16.5949
C 30.4592 28.2043 16.2184
C 19.7087 31.8139 16.6209
C 29.0142 30.6708 16.4118
C 26.8988 29.4181 16.7553
C 24.7334 30.6416 16.8518
C 21.8345 33.0799 16.5721
C 24.6971 33.1073 16.5685
C 24.8125 23.1894 16.7728
C 26.9504 24.4578 16.699
C 20.4977 25.6243 16.9127
C 20.4695 28.1127 16.954
C 26.2518 20.7463 16.4114
C 17.656 25.5935 16.6483
C 22.7062 19.4782 16.1942
C 28.3846 22.0119 16.3544
C 18.3871 21.9066 16.4051
C 17.6306 28.0775 16.6353
C 24.1326 19.4844 16.2661
C 17.668 23.1227 16.5324
C 31.1765 26.9709 16.0757
C 28.2813 31.8934 16.4161
C 26.1209 33.1124 16.4889
C 20.4025 33.0528 16.4757
C 26.9279 26.9375 16.7702
C 22.6008 29.3812 16.9754
C 22.6557 24.4056 16.8977
C 30.526 23.2514 16.2129
C 31.2232 24.4901 16.1197
C 17.5824 30.5446 16.5942
C 18.2701 31.7821 16.5057
C 31.1428 29.4546 16.0104
C 26.198 28.1716 16.8369
C 24.0353 29.3947 16.943
C 30.4219 30.6824 16.1168
C 26.2238 25.6888 16.8021
C 21.9012 28.1291 17.0009
C 22.5344 34.3139 16.3506
C 21.929 25.6412 16.9581
C 24.0885 24.4217 16.8787
C 23.9638 34.3256 16.3492
C 19.8331 19.4674 15.9556
C 24.7661 28.1587 16.9327
C 22.6305 26.8925 16.9953
C 24.7926 25.672 16.8987
C 21.9953 18.2382 15.908
C 17.6792 20.6822 16.133
C 26.9697 19.5199 16.151
C 29.1038 20.794 16.0848
C 16.2312 25.5759 16.4113
C 24.8606 18.2539 16.052
C 16.2133 28.067 16.3528
C 16.2424 23.1074 16.4216
C 24.064 26.9076 16.9639
C 32.5917 26.979 15.7128
C 20.5752 18.2604 15.8274
C 18.4187 19.4872 15.8818
C 19.6589 34.2777 16.181
C 31.2528 22.0175 16.0359
C 28.9692 33.1298 16.1308
C 26.8111 34.3445 16.196
C 32.6389 24.4921 15.7966
C 16.1583 30.527 16.4687
C 32.5561 29.4606 15.6614
C 17.5299 33.0018 16.2898
C 21.797 35.5389 16.0773
C 31.1048 31.9268 15.8525
C 24.669 35.5602 16.0724
C 26.2791 18.2993 16.0553
C 15.5578 24.3437 16.346
C 33.2906 25.7494 15.6077
C 28.3982 19.543 16.1164
C 33.2519 28.2235 15.558
C 30.5131 20.8058 16.0283
C 15.5075 26.8137 16.3776
C 22.7473 17.0308 15.7924
C 18.2425 34.226 16.1425
C 20.3698 35.5002 16.0231
C 15.5044 29.2819 16.3406
C 16.2572 20.6818 16.2089
C 24.1498 17.0444 15.8414
C 15.5592 21.8673 16.3504
C 30.3591 33.1362 15.9173
C 28.2438 34.3631 16.1874
C 26.0904 35.5418 16.0464
H 20.0393 17.3213 15.6169
H 17.8779 18.5583 15.6307
C 33.3581 23.2612 15.7574
C 32.6659 22.034 15.9109
C 33.2126 30.7116 15.4876
C 15.4425 31.7571 16.4479
C 16.1059 32.9608 16.3599
C 32.4924 31.9129 15.5476
C 22.5254 36.7487 15.8972
C 23.9301 36.7538 15.8649
H 34.325 28.2266 15.3084
H 34.358 25.7567 15.3365
H 26.8384 17.3811 15.7846
H 22.2064 16.0863 15.6286
H 15.719 19.7225 16.1209
H 14.4747 24.3304 16.0987
H 19.8137 36.4252 15.7986
H 17.6782 35.1562 15.967
H 31.055 19.85 15.9027
H 14.4088 29.269 16.1899
H 24.7177 16.1049 15.7517
H 28.9239 18.6586 15.7022
H 14.4568 21.8675 16.3761
H 14.4887 26.8049 15.9417
H 30.8544 34.077 15.6133
H 26.6262 36.4621 15.7442
H 34.4566 23.2888 15.6478
H 33.1962 21.0667 15.8882
H 28.7301 35.2487 15.7311
H 34.2896 30.7118 15.2595
H 15.5492 33.9128 16.3251
H 14.3406 31.725 16.4794
H 21.9655 37.6835 15.7344
H 33.0055 32.8692 15.3704
H 24.4759 37.6944 15.6916
C 23.4049 20.6603 19.8204
C 19.0777 23.127 19.8096
C 21.2441 21.9018 19.8386
C 21.9743 20.6715 19.7997
C 26.268 20.6663 19.6724
C 19.8135 21.9029 19.7602
C 25.5419 21.9124 19.7677
C 28.4227 21.923 19.6613
C 24.1155 21.905 19.8501
C 27.6917 23.1615 19.6667
C 19.0587 25.5991 19.9549
C 19.7822 24.368 19.928
C 24.1235 19.4155 19.7721
C 19.0323 28.0827 20.0556
C 17.6246 25.5904 19.8878
C 28.3909 24.4073 19.5907
C 27.7134 20.6771 19.6488
C 17.6012 28.0747 20.0237
C 29.8369 24.4155 19.5331
C 17.6461 23.1161 19.7188
C 26.2456 23.1553 19.7602
C 19.7414 29.3196 20.0745
C 25.5587 19.4183 19.7241
C 21.9498 23.1392 19.9286
C 19.7634 26.8432 20.0404
C 19.0205 30.5517 20.0339
C 29.859 21.9195 19.6347
C 29.8108 26.9129 19.5464
C 28.3728 26.9073 19.6281
C 28.3536 29.4078 19.6692
C 16.8897 26.8293 19.9797
C 24.0328 31.8433 19.9305
C 21.8888 30.5761 20.0473
C 30.5555 23.1693 19.5479
C 16.9211 24.3437 19.7903
C 27.6234 30.6349 19.6764
C 23.3843 23.1424 19.9244
C 25.4563 31.8613 19.8032
C 21.2172 24.3726 19.9739
C 21.1641 31.8081 19.994
C 26.1781 30.6269 19.659
C 27.6578 25.6557 19.6113
C 30.5402 25.669 19.4871
C 21.1794 29.3301 20.0853
C 29.8021 29.4149 19.6095
C 27.6418 28.1453 19.7136
C 23.32 30.5921 19.9901
C 21.2649 19.4267 19.7025
C 16.8718 29.3164 19.9804
C 23.3082 33.0784 19.919
C 19.0948 20.6582 19.656
C 17.5855 30.5488 19.9457
C 19.7372 31.7866 20.0122
C 30.5205 28.1669 19.5466
C 21.8712 33.0516 19.897
C 25.5206 24.3914 19.8443
C 21.1896 26.8516 20.0663
C 25.4657 29.3655 19.7198
C 23.3987 18.1481 19.768
C 28.4442 19.4211 19.7353
C 28.3413 31.8941 19.7382
C 26.2231 25.6459 19.7968
C 26.1679 33.1143 19.8574
C 21.904 28.0982 20.0894
C 24.0383 29.3572 19.9282
C 26.1989 28.1324 19.7858
C 24.0836 24.3886 19.934
C 21.9189 25.615 20.0221
C 16.9206 21.8719 19.588
C 19.8289 19.4285 19.6357
C 26.2841 18.1309 19.7435
C 21.9705 18.1876 19.6813
C 30.5169 30.6626 19.6372
C 30.6149 20.6546 19.6703
C 17.6697 20.657 19.6526
C 24.0173 34.3322 19.8757
C 23.3384 28.1089 20.0395
C 25.495 26.8829 19.9004
C 15.4315 26.8144 20.0672
C 23.3552 25.6231 19.9881
C 31.9796 25.6761 19.4375
C 27.6046 33.1272 19.8137
C 24.0644 26.8701 19.9934
C 32.0121 23.1595 19.5663
C 15.4615 24.3134 19.8739
C 29.782 31.8953 19.7312
C 29.8853 19.4195 19.7604
C 15.4096 29.3227 19.9433
C 25.4533 34.3436 19.9036
C 31.9544 28.1772 19.4904
C 27.7224 18.1761 19.8617
C 19.0091 33.015 19.947
C 16.8472 31.7802 19.796
C 21.147 34.2919 19.7989
C 24.1235 16.9202 19.6628
C 14.7117 28.0536 20.0947
C 32.7058 24.4256 19.4423
C 14.76 25.5564 20.1045
C 32.6763 26.9332 19.3676
C 25.5544 16.926 19.6571
C 15.5058 21.8792 19.5386
C 17.5717 33.0219 19.8999
C 32.0177 20.6636 19.5198
C 19.7198 34.2509 19.7928
C 31.9751 30.6808 19.5661
H 19.2853 18.4621 19.7192
H 21.4053 17.2349 19.6722
C 32.71 21.905 19.5337
C 23.2873 35.589 19.8573
H 17.118 19.694 19.7004
C 32.661 29.4302 19.3801
C 14.7904 23.0778 19.7389
C 21.8502 35.5406 19.7623
H 30.4399 18.4742 19.5935
C 14.7308 30.5523 19.8263
C 15.4382 31.7555 19.7481
H 28.2887 17.2229 19.9069
C 28.3242 34.3876 19.9427
H 23.5719 15.9657 19.6473
H 13.6087 28.0433 20.1028
C 30.5195 33.1634 19.8134
C 26.1718 35.6228 19.96
H 33.7946 24.4524 19.6516
H 14.9687 20.9285 19.3971
H 13.6756 25.5309 20.3104
H 33.7872 26.9372 19.474
H 26.0932 15.9644 19.6167
H 32.5733 19.7122 19.3992
H 17.0449 33.9604 19.6263
H 19.1505 35.2076 19.7269
H 33.8077 21.8819 19.4276
H 33.7693 29.4301 19.3089
H 13.6885 23.062 19.7847
H 13.6293 30.5551 19.7894
C 32.6581 31.9288 19.5262
H 21.2913 36.4888 19.8948
C 24.0086 36.8199 19.8259
H 14.8984 32.7097 19.6322
C 27.5981 35.6014 20.0286
C 29.7548 34.367 20.009
C 31.932 33.1589 19.6746
C 25.4315 36.8303 19.9066
H 33.762 31.9344 19.4997
H 23.4466 37.7658 19.8548
H 28.1479 36.5424 20.2003
H 30.2905 35.3151 20.1849
H 32.4736 34.116 19.7134
H 25.9768 37.7852 19.9603
H 15.0869 20.1195 23.3452
H 21.3322 15.897 23.5349
H 17.1671 18.6962 23.1199
H 19.2269 17.2711 23.2538
H 23.8365 15.7603 23.6338
H 13.9821 22.3975 23.3823
C 21.9403 16.8158 23.4903
C 15.7115 21.0273 23.3497
H 32.7706 20.0544 23.0123
C 17.7815 19.6036 23.2682
C 19.8472 18.1869 23.2666
C 23.332 16.7354 23.5411
H 26.0272 16.8147 23.4115
H 34.176 22.1719 22.9556
C 15.0803 22.3186 23.3895
H 34.6962 29.6487 23.1594
H 14.1972 24.9192 23.3666
H 14.7168 32.2864 23.7009
H 28.2686 17.8975 23.2685
H 30.5073 18.9806 23.314
H 16.1165 34.3888 23.6478
H 14.4123 27.3717 23.7068
H 34.5377 27.1459 23.0196
H 22.8795 37.6722 23.5259
H 33.5844 31.9052 23.3595
H 14.5728 29.7858 23.8211
H 34.3431 24.677 22.9139
C 17.1187 20.8902 23.3325
C 21.292 18.0675 23.3859
H 25.4149 37.4882 23.5667
C 19.2121 19.4731 23.3066
H 20.6163 36.5872 23.4384
C 32.2892 21.0415 23.0626
C 33.0785 22.2391 23.0123
H 18.3787 35.5201 23.5705
C 25.5485 17.8186 23.3958
C 33.5965 29.718 23.1911
C 15.2912 24.8154 23.5039
H 31.5129 33.3027 23.5523
C 15.817 32.2159 23.6724
C 24.1254 17.8988 23.4762
H 27.4642 36.0593 23.4631
H 29.4685 34.6615 23.6566
C 15.8687 23.5093 23.3831
C 16.6102 33.4029 23.604
C 27.7829 18.905 23.2754
C 32.9737 30.9876 23.3038
C 30.0303 19.9681 23.1536
C 23.3603 36.682 23.5158
C 15.5201 27.2772 23.6931
C 33.4351 27.2236 23.0538
C 15.6727 29.7263 23.6978
C 33.2446 24.7434 22.9763
C 24.7878 36.584 23.5638
C 26.3442 18.9855 23.2603
C 30.8613 21.1277 23.0734
C 21.0994 35.5972 23.4187
C 28.6068 20.0775 23.0867
C 16.1049 25.9915 23.5667
C 32.4843 23.5222 23.0168
C 18.8561 34.522 23.5008
C 22.085 19.2954 23.3414
C 32.822 28.5325 23.1823
C 17.9547 22.1013 23.3278
C 16.4299 30.932 23.575
C 24.0291 26.6455 23.0735
C 16.3074 28.4542 23.7479
C 20.0202 20.6857 23.3114
C 32.6503 26.0291 23.0353
C 24.8348 27.8319 23.1362
C 30.9079 32.3766 23.4781
C 22.5993 26.7542 23.0924
C 24.649 25.3482 23.0699
C 23.5056 19.1998 23.3415
C 18.0244 33.3325 23.5035
C 26.8295 35.1546 23.4526
C 22.5406 35.5357 23.4533
C 17.3258 23.4012 23.3472
C 28.8507 33.7484 23.5777
C 31.5627 31.0968 23.3765
C 24.2065 29.1259 23.1961
C 26.2646 27.7262 23.2191
C 21.7951 25.5635 23.1033
C 23.8478 24.1595 23.0589
C 20.2845 34.4344 23.4189
C 21.9767 28.0462 23.1379
C 26.0763 25.2402 23.1426
C 25.4208 35.2974 23.4907
C 21.4552 20.5908 23.2628
C 19.384 21.9896 23.2943
C 22.4169 24.2685 23.0822
C 22.7785 29.2385 23.1539
C 26.891 26.4352 23.1975
C 25.7191 20.2904 23.2109
C 29.489 32.483 23.5258
C 17.5418 25.8833 23.4546
C 27.9627 21.3759 23.0701
C 30.2149 22.4288 23.0753
C 27.4435 33.8805 23.3727
C 31.0161 23.6323 23.1001
C 24.2927 20.3881 23.2168
C 24.4709 22.8669 23.0722
C 20.3694 25.6671 23.1767
C 18.1404 24.5864 23.3306
C 17.725 28.3537 23.5269
C 26.7018 23.9409 23.1509
C 20.5511 28.1523 23.2176
C 27.0683 28.9087 23.3954
C 21.6142 23.0864 23.1387
C 26.5293 21.4726 23.119
C 25.0071 30.3146 23.3507
C 17.8808 30.8311 23.4809
C 31.3734 28.6154 23.2402
C 22.2452 21.7829 23.159
C 20.1906 23.1863 23.2055
C 25.8943 22.761 23.0909
C 23.6644 21.6765 23.1244
C 31.1974 26.132 23.1379
C 19.7549 26.9638 23.2508
C 18.6756 32.0242 23.4378
C 19.5672 24.4765 23.2216
C 18.3369 27.0691 23.4084
C 28.7761 22.5482 23.0902
C 28.3287 26.3133 23.2732
C 26.4353 30.1975 23.4874
C 23.164 34.1982 23.4195
C 22.1555 30.5298 23.2207
C 30.7397 29.8986 23.3247
C 18.5072 29.5459 23.4228
C 28.1493 23.8299 23.1834
C 30.3993 24.9186 23.1693
C 20.9045 33.116 23.3663
C 19.9291 29.447 23.2924
C 30.5745 27.4211 23.2374
C 28.9483 25.0259 23.2355
C 24.5998 34.0936 23.398
C 28.5071 28.8029 23.363
C 29.1386 27.5172 23.3252
C 20.7224 30.6356 23.2773
C 24.3871 31.6104 23.2867
C 20.0984 31.9258 23.353
C 28.6783 31.2887 23.4168
C 22.9653 31.7118 23.2581
C 26.6256 32.6787 23.3482
C 22.3523 33.0147 23.3492
C 27.2483 31.3964 23.4547
C 29.3153 30.003 23.3565
C 25.2015 32.8005 23.3168
H 23.2184 15.7934 26.6058
H 14.8484 20.9003 27.3893
H 25.7218 15.7136 26.6567
H 32.2366 19.3083 27.1133
H 33.5253 21.4602 27.2035
H 13.6312 23.0925 27.5102
H 15.0786 32.6506 27.6017
H 13.7681 30.5032 27.5887
H 19.1059 18.4292 27.3752
H 21.1651 17.1016 26.9851
H 16.9884 19.6586 27.3782
H 33.6288 26.3766 27.094
H 19.4001 34.9829 27.5447
H 33.7441 31.2636 27.4922
H 23.7034 37.3457 27.8084
H 33.5853 23.9359 27.0729
H 17.2584 33.8162 27.5797
H 27.8872 16.9126 27.0252
H 30.0653 18.1074 27.0384
H 33.6777 28.8086 27.2858
H 32.5388 33.4602 27.6607
H 21.5324 36.1771 27.5543
H 26.2108 37.3146 27.7491
H 13.719 28.0379 27.4944
H 13.7044 25.5738 27.6711
C 23.8113 16.7234 26.6147
C 25.1923 16.6827 26.6535
C 15.3995 21.8489 27.2862
C 31.7183 20.2742 26.9985
C 14.7193 23.0692 27.3395
C 32.434 21.4745 27.0566
C 14.8576 30.493 27.4294
C 15.5876 31.6869 27.4427
H 30.44 34.7532 27.6017
H 28.3443 36.0508 27.5613
C 21.732 18.0435 26.8272
C 19.6075 19.2942 26.8944
C 17.5209 20.5806 27.0674
C 32.655 31.3167 27.3313
C 24.2407 36.4117 27.5803
C 31.9863 32.5385 27.4207
C 27.3664 17.8778 26.8943
C 25.6395 36.3972 27.5377
C 29.5415 19.0664 26.8968
C 32.4939 23.9558 26.9112
C 32.5593 26.411 26.806
C 17.7535 32.8851 27.2416
C 19.904 34.0649 27.1844
C 14.7657 25.5541 27.3727
C 14.8023 28.0192 27.2869
C 32.6124 28.8585 26.9869
C 22.0624 35.2374 27.3263
C 23.1285 17.9649 26.6453
C 25.9494 17.8881 26.7408
C 16.8017 21.8051 27.07
C 30.2977 20.2692 26.8766
C 15.4209 24.3074 27.2215
C 31.7791 22.7305 26.9024
C 15.5082 29.2384 27.2263
C 21.0469 19.268 26.8264
C 16.9918 31.6885 27.2119
C 18.9145 20.5462 26.9008
C 28.1236 19.0739 26.8296
C 29.8782 33.8356 27.3615
C 27.7783 35.1314 27.3439
C 15.4691 26.7849 27.2283
C 24.0062 26.6206 26.1193
C 31.9526 30.1149 27.036
C 31.8316 25.1914 26.8318
C 23.4827 35.2349 27.3175
C 19.1572 32.8622 27.1161
C 31.8871 27.6629 26.8343
C 21.3249 34.0535 27.1765
C 30.5694 32.6187 27.2367
C 26.3614 35.1866 27.3048
C 23.3179 27.877 26.169
C 25.4403 26.5883 26.1382
C 23.2628 25.3934 26.1193
C 28.4813 33.8994 27.2428
C 24.0652 29.0999 26.2283
C 26.1863 27.8133 26.199
C 23.8627 19.185 26.5071
C 21.8832 27.9041 26.2253
C 26.1256 25.3303 26.1595
C 25.2778 19.1467 26.5419
C 17.5265 23.0342 26.8423
C 21.8313 25.4246 26.1779
C 23.9535 24.135 26.1188
C 16.8388 24.2787 26.9148
C 29.6118 21.5368 26.6858
C 30.348 22.758 26.683
C 16.9315 29.221 26.9644
C 17.6673 30.4398 26.94
C 25.5003 29.0678 26.2481
C 21.1408 26.6793 26.2378
C 25.3855 24.1019 26.1373
C 27.436 20.3409 26.5901
C 21.7622 20.4828 26.5379
C 19.6394 21.7627 26.6096
C 30.5258 30.166 26.8146
C 16.8853 26.755 26.8873
C 24.1816 34.0031 27.0131
C 30.3978 25.23 26.5911
C 29.8396 31.4092 26.912
C 19.8346 31.6239 26.7901
C 25.6081 33.9768 27.0184
C 30.4586 27.7058 26.5898
C 22.0109 32.8132 26.8492
C 21.1946 29.1551 26.3457
C 23.3777 30.3507 26.3519
C 27.6189 27.7788 26.2765
C 27.5556 25.2956 26.256
C 21.0915 24.1986 26.2529
C 26.0205 20.369 26.4398
C 23.2162 22.9099 26.184
C 23.175 20.4398 26.4111
C 18.9436 23.0044 26.5855
C 28.1811 21.5654 26.5184
C 17.5642 25.5092 26.7369
C 17.6084 27.9744 26.7529
C 21.0564 21.7262 26.4429
C 21.9427 30.3745 26.4153
C 29.6643 24.0094 26.5108
C 28.2993 26.5218 26.3088
C 21.7854 22.9439 26.2615
C 19.0885 30.42 26.7026
C 27.7321 32.687 26.921
C 19.7111 26.7054 26.3817
C 29.7251 26.4858 26.4659
C 26.0759 22.8462 26.2122
C 21.2577 31.6112 26.6534
C 26.2468 30.2871 26.3909
C 29.7867 28.955 26.5663
C 23.4381 32.7974 26.7592
C 23.9106 21.6575 26.2532
C 19.666 24.2274 26.4066
C 19.765 29.1772 26.4867
C 28.2409 24.0404 26.3368
C 25.3372 21.6201 26.2651
C 18.9741 25.4809 26.4776
C 27.5023 22.8155 26.3225
C 19.0247 27.9544 26.5117
C 24.1259 31.5659 26.5076
C 28.4159 31.4541 26.7363
C 26.3029 32.7338 26.7951
C 28.3627 28.9995 26.4079
C 25.5592 31.5343 26.5276
C 27.6778 30.2501 26.48
Li 31.6735 21.8986 21.2788
Li 16.8662 32.0859 21.8144
Li 16.17 22.2588 21.5731
Li 24.5578 35.7877 21.6226
Li 31.6383 31.8742 21.4254
Li 28.7917 33.0091 21.5978
Li 21.8229 34.3687 21.7157
Li 20.8982 18.8873 21.5639
Li 15.6345 28.5921 21.8638
Li 16.3734 25.3348 21.6389
Li 27.0164 20.0005 21.4924
Li 33.1647 28.2613 21.1816
Li 33.1821 27.7916 25.1456
Li 31.5644 24.8672 21.3229
Li 18.613 20.8001 21.6305
Li 24.7521 17.9093 21.4413
Li 29.2303 18.6632 21.5741
Li 18.4218 34.2889 21.5091
Li 29.7795 33.9849 17.8822
Li 31.9336 24.8666 24.8069
Li 27.1994 35.4657 17.9342
Li 27.4061 34.2499 25.3974
Li 18.41 34.0543 25.532
Li 21.7015 34.3222 25.1649
Li 31.6152 31.6542 25.4209
Li 24.7157 35.7865 25.5491
Li 14.9441 26.0009 25.327
Li 31.6026 21.577 25.041
Li 17.991 19.4493 25.3446
Li 14.7953 25.41 17.993
Li 23.3795 35.9887 17.8215
Li 21.0963 19.0996 17.7366
Li 32.2727 30.9975 17.5166
Li 15.8 22.8204 25.3809
Li 27.5372 18.2738 17.7757
Li 15.4844 28.1331 18.1947
Li 33.1319 25.5727 17.679
Li 29.0237 20.0789 25.0652
Li 15.8906 30.7542 25.5519
Li 18.6596 33.2938 18.0066
Li 23.5167 17.7882 17.733
Li 18.3389 19.6834 17.9371
Li 29.6025 20.1484 17.892
Li 29.283 28.1881 21.3414
Li 32.3821 28.2396 17.5254
Li 20.4028 18.163 25.247
Li 27.5525 25.0767 21.5417
Li 20.6303 35.3279 18.0286
Li 26.97 17.883 24.9015
Li 26.3258 29.8427 21.5617
Li 33.1002 22.956 17.7812
Li 24.7351 22.6187 21.4282
