622
592nano.out 0 0 0
C 22.6812 21.9536 16.7397
C 20.5322 23.1671 16.8213
C 21.9786 20.7139 16.6191
C 24.1042 21.9653 16.727
C 19.8316 21.9271 16.6935
C 19.8084 24.3918 16.8892
C 29.0526 25.7056 16.5987
C 29.0299 28.1753 16.5862
C 28.3542 24.467 16.6535
C 20.4489 30.5689 16.9091
C 22.5717 31.8279 16.8405
C 19.7523 29.3288 16.9557
C 28.3075 29.4058 16.6326
C 23.9981 31.8444 16.8109
C 24.8273 20.7362 16.6095
C 21.9581 23.1795 16.8423
C 18.3799 24.3787 16.831
C 26.953 21.9845 16.6419
C 28.3323 26.9375 16.6815
C 18.3515 26.8443 16.9286
C 21.877 30.5877 16.9302
C 20.5551 20.7034 16.5937
C 29.0762 23.2345 16.5606
C 26.2303 23.2165 16.7454
C 19.7816 26.8602 16.9852
C 26.1596 30.634 16.7792
C 18.3225 29.3108 16.8969
C 30.4732 25.7129 16.4284
C 26.8509 31.8694 16.608
C 30.4515 28.1781 16.3997
C 19.7172 31.7928 16.7968
C 29.0035 30.6448 16.4649
C 26.887 29.4015 16.7806
C 24.732 30.6207 16.8704
C 21.8348 33.0513 16.728
C 24.69 33.0857 16.6457
C 24.8069 23.2047 16.7997
C 26.931 24.4559 16.7617
C 20.5072 25.6337 16.9684
C 20.4798 28.1019 17.0043
C 26.2497 20.7477 16.5846
C 17.6556 25.6033 16.8603
C 22.703 19.4902 16.4946
C 28.3756 21.9967 16.5717
C 18.4064 21.9184 16.634
C 17.6266 28.07 16.8949
C 24.1215 19.501 16.5007
C 17.6851 23.1377 16.7087
C 31.1687 26.9505 16.3198
C 28.2744 31.8679 16.4375
C 26.1087 33.0935 16.5282
C 20.4118 33.0312 16.7016
C 26.9103 26.929 16.8151
C 22.6073 29.3618 16.9859
C 22.6585 24.4195 16.9206
C 30.4983 23.2486 16.4302
C 31.1924 24.4813 16.3498
C 17.5977 30.5363 16.7982
C 18.2906 31.7713 16.7436
C 31.1478 29.4137 16.2595
C 26.1879 28.1597 16.8695
C 24.0347 29.3775 16.9572
C 30.427 30.6399 16.2801
C 26.2097 25.6864 16.8474
C 21.908 28.1183 17.0181
C 22.525 34.2911 16.6005
C 21.9345 25.6477 16.9829
C 24.0844 24.4329 16.8946
C 23.9452 34.3081 16.5488
C 19.849 19.4575 16.4457
C 24.7616 28.1475 16.9523
C 22.6346 26.8904 17.008
C 24.7854 25.6749 16.92
C 21.9868 18.248 16.3573
C 17.7085 20.6653 16.4895
C 26.9809 19.5074 16.482
C 29.103 20.7533 16.481
C 16.2151 25.5905 16.7836
C 24.858 18.2668 16.3844
C 16.1863 28.0506 16.8144
C 16.2454 23.1333 16.6395
C 24.0619 26.9053 16.9765
C 32.5992 26.9583 16.1264
C 20.5899 18.2559 16.3392
C 18.433 19.4746 16.4048
C 19.6745 34.2633 16.5662
C 31.2196 22.0013 16.3562
C 28.966 33.1006 16.1584
C 26.7904 34.3301 16.2429
C 32.6265 24.5006 16.1847
C 16.1579 30.5081 16.722
C 32.5734 29.4129 16.063
C 17.5625 33.0089 16.6124
C 21.7817 35.5171 16.4832
C 31.1192 31.8721 16.0688
C 24.6311 35.5441 16.3387
C 26.252 18.2914 16.3987
C 15.5484 24.3385 16.6963
C 33.2924 25.7197 16.0747
C 28.3885 19.5414 16.4585
C 33.267 28.1937 16.0115
C 30.5218 20.7968 16.4047
C 15.5175 26.8122 16.784
C 22.7461 17.0293 16.2454
C 18.257 34.2145 16.5351
C 20.3801 35.4795 16.4776
C 15.4899 29.2865 16.7495
C 16.2693 20.688 16.4408
C 24.1151 17.0386 16.2625
C 15.5729 21.8649 16.5151
C 30.3692 33.0707 15.996
C 28.2346 34.3481 16.1863
C 26.035 35.5221 16.1685
H 20.0472 17.3006 16.2313
H 17.8923 18.5185 16.2951
C 33.3253 23.2393 16.143
C 32.6558 22.0506 16.2311
C 33.2431 30.6717 15.925
C 15.4551 31.7615 16.6153
C 16.1234 32.9533 16.5622
C 32.5413 31.8538 15.92
C 22.5062 36.747 16.3617
C 23.8783 36.7585 16.2833
H 34.3619 28.2011 15.8667
H 34.3892 25.7278 15.9431
H 26.8115 17.3423 16.3306
H 22.195 16.0789 16.1477
H 15.7367 19.7274 16.342
H 14.4457 24.3281 16.6557
H 19.8156 36.4233 16.3849
H 17.6947 35.1592 16.4336
H 31.0788 19.8446 16.3574
H 14.3871 29.2717 16.7032
H 24.6829 16.0963 16.1856
H 28.9467 18.5912 16.4
H 14.4713 21.8649 16.4801
H 14.415 26.8002 16.7394
H 30.8992 34.0071 15.723
H 26.5498 36.4679 15.9003
H 34.4241 23.2565 16.0368
H 33.2044 21.0935 16.2
H 28.7014 35.2089 15.6657
H 34.34 30.6708 15.8032
H 15.57 33.9033 16.4732
H 14.3534 31.7354 16.5761
H 21.9362 37.6894 16.3064
H 33.0677 32.8155 15.7936
H 24.423 37.7104 16.1634
C 23.3811 20.6857 19.729
C 19.0907 23.1406 19.8941
C 21.2368 21.9114 19.8483
C 21.9586 20.6847 19.7261
C 26.2449 20.6952 19.6498
C 19.81 21.9167 19.8024
C 25.5232 21.9248 19.7812
C 28.389 21.9259 19.6785
C 24.0964 21.9199 19.8262
C 27.6637 23.1558 19.7633
C 19.08 25.6134 20.0418
C 19.7992 24.3785 20.0056
C 24.0934 19.4501 19.5942
C 19.0664 28.0861 20.0952
C 17.651 25.6097 19.9549
C 28.3773 24.3948 19.7678
C 27.681 20.6921 19.6227
C 17.6378 28.0817 20.0271
C 29.8059 24.4045 19.6205
C 17.6592 23.1341 19.8165
C 26.2332 23.1602 19.8367
C 19.7808 29.3255 20.088
C 25.5222 19.4502 19.578
C 21.9486 23.1478 19.9494
C 19.7892 26.8516 20.098
C 19.0654 30.5571 20.0023
C 29.827 21.9247 19.5924
C 29.7984 26.8832 19.6287
C 28.375 26.8748 19.8052
C 28.3687 29.3501 19.7986
C 16.9265 26.8444 19.9531
C 24.0715 31.8101 19.9687
C 21.9268 30.5644 20.0436
C 30.5295 23.1658 19.534
C 16.9372 24.361 19.8547
C 27.6494 30.5824 19.8392
C 23.3794 23.1516 19.9297
C 25.4999 31.8195 19.9404
C 21.2289 24.3814 20.0213
C 21.2052 31.7955 19.9356
C 26.2198 30.5787 19.941
C 27.6661 25.6334 19.8505
C 30.5086 25.6465 19.5112
C 21.2137 29.3296 20.0983
C 29.7943 29.35 19.6307
C 27.6576 28.1107 19.8748
C 23.3596 30.5709 20.0347
C 21.243 19.4392 19.5627
C 16.9152 29.3203 19.9519
C 23.3501 33.0409 19.8666
C 19.0957 20.6793 19.6029
C 17.6286 30.5511 19.9266
C 19.781 31.7851 19.9107
C 30.4975 28.1184 19.5225
C 21.921 33.0273 19.8028
C 25.5201 24.3951 19.9253
C 21.2216 26.8548 20.1026
C 25.511 29.3425 20.0005
C 23.3733 18.2057 19.4669
C 28.4078 19.4322 19.525
C 28.3567 31.8261 19.7549
C 26.2355 25.6332 19.9356
C 26.2071 33.0593 19.8911
C 21.9344 28.0938 20.1074
C 24.0776 29.3378 20.0539
C 26.229 28.1061 19.9707
C 24.0912 24.3901 19.9725
C 21.9417 25.621 20.0622
C 16.9498 21.8939 19.6386
C 19.8139 19.4464 19.6417
C 26.2488 18.1993 19.5123
C 21.9531 18.2285 19.4897
C 30.5077 30.5881 19.5363
C 30.5512 20.6809 19.4886
C 17.688 20.6868 19.5549
C 24.0606 34.2827 19.7915
C 23.3651 28.0989 20.0787
C 25.5173 26.8661 19.9943
C 15.4713 26.836 19.8428
C 23.3723 25.6245 20.0349
C 31.9461 25.6499 19.2886
C 27.637 33.0704 19.8223
C 24.0849 26.8625 20.0459
C 31.9709 23.1807 19.3724
C 15.4906 24.3587 19.7678
C 29.797 31.8231 19.6504
C 29.8297 19.45 19.5135
C 15.477 29.3137 19.8241
C 25.4864 34.2954 19.8686
C 31.9237 28.1219 19.265
C 27.6732 18.2182 19.5558
C 19.0614 33.0245 19.7259
C 16.9096 31.7859 19.7668
C 21.203 34.2696 19.6166
C 24.1106 16.9898 19.3688
C 14.7772 28.0717 19.8309
C 32.6437 24.424 19.2615
C 14.7915 25.5918 19.8058
C 32.6214 26.8936 19.214
C 25.5059 16.9845 19.4332
C 15.5247 21.9101 19.588
C 17.639 33.0207 19.7705
C 31.9726 20.7211 19.3853
C 19.7828 34.2378 19.6293
C 31.9415 30.5935 19.3163
H 19.2797 18.5258 19.3362
H 21.4045 17.2864 19.3098
C 32.6632 21.9331 19.3191
C 23.3298 35.5287 19.6604
H 17.1512 19.7445 19.3417
C 32.6214 29.3536 19.2098
C 14.8154 23.1028 19.7029
C 21.9151 35.4864 19.5945
H 30.3694 18.5136 19.2735
C 14.7918 30.5574 19.771
C 15.491 31.7588 19.7384
H 28.2179 17.2632 19.453
C 28.3617 34.3364 19.9052
H 23.5571 16.0443 19.2554
H 13.6895 28.0696 19.6451
C 30.5317 33.0795 19.6917
C 26.2021 35.5583 19.9091
H 33.7357 24.4296 19.1141
H 14.9929 20.9539 19.4597
H 13.6908 25.5841 19.7439
H 33.6903 26.8882 18.925
H 26.0614 16.0359 19.3622
H 32.5253 19.7692 19.3243
H 17.1025 33.9271 19.4265
H 19.2437 35.1638 19.3444
H 33.7579 21.9472 19.2122
H 33.6807 29.3551 18.8886
H 13.7139 23.0996 19.6615
H 13.6922 30.5547 19.6865
C 32.6232 31.8413 19.2618
H 21.3609 36.4307 19.4695
C 24.0614 36.7536 19.6404
H 14.9479 32.7123 19.6288
C 27.6346 35.5421 20.0106
C 29.7955 34.3061 19.9224
C 31.9394 33.0508 19.4928
C 25.4594 36.7654 19.7816
H 33.7063 31.8462 19.0606
H 23.5092 37.6987 19.5311
H 28.1778 36.49 20.1733
H 30.356 35.2403 20.1047
H 32.4966 34.0026 19.5045
H 26.0025 37.7254 19.807
H 15.1799 20.0877 23.652
H 21.3948 15.9554 23.6279
H 17.231 18.6647 23.5034
H 19.3286 17.311 23.6092
H 23.8977 15.8075 23.5755
H 14.0816 22.3378 23.7637
C 22.0091 16.8676 23.5341
C 15.7938 20.995 23.5485
H 32.7468 20.1367 23.175
C 17.8248 19.5576 23.2244
C 19.9288 18.2217 23.4528
C 23.3921 16.7845 23.4955
H 26.1 16.9125 23.5093
H 34.1755 22.2606 23.0352
C 15.1759 22.2613 23.6358
H 34.6581 29.7305 23.1545
H 14.2097 24.8048 23.4666
H 14.7107 32.2252 23.9629
H 28.2928 18.017 23.5582
H 30.4829 19.1173 23.66
H 16.0643 34.3209 23.7001
H 14.4087 27.2943 23.8532
H 34.5156 27.2195 22.9599
H 22.7841 37.665 23.5327
H 33.5334 31.9744 23.3773
H 14.5824 29.7415 24.0381
H 34.3303 24.7509 22.8105
C 17.1832 20.8589 23.346
C 21.3501 18.1267 23.4943
H 25.3328 37.4946 23.552
C 19.2702 19.4593 23.2933
H 20.5333 36.5709 23.2511
C 32.2682 21.1192 22.9976
C 33.0757 22.3185 23.028
H 18.2993 35.4825 23.4658
C 25.6053 17.8881 23.3749
C 33.555 29.7936 23.1697
C 15.3197 24.7451 23.4412
H 31.4415 33.3525 23.4984
C 15.7965 32.1609 23.8002
C 24.1913 17.9603 23.4252
H 27.3827 36.0722 23.4682
H 29.3937 34.6949 23.568
C 15.9306 23.4494 23.5219
C 16.5625 33.3364 23.6636
C 27.8166 18.984 23.3024
C 32.923 31.0581 23.2915
C 30.0195 20.0786 23.3617
C 23.2713 36.6779 23.516
C 15.5011 27.2197 23.6606
C 33.4113 27.3043 22.9679
C 15.655 29.6796 23.7785
C 33.2309 24.8192 22.887
C 24.7069 36.5861 23.4875
C 26.39 19.0541 23.3268
C 30.8406 21.2121 23.1481
C 21.0219 35.5842 23.3063
C 28.606 20.1642 23.3144
C 16.1046 25.9419 23.5218
C 32.4747 23.5938 22.994
C 18.7837 34.4889 23.395
C 22.1342 19.3317 23.3289
C 32.7921 28.613 23.0767
C 17.9916 22.0667 23.3263
C 16.4078 30.881 23.718
C 24.0186 26.6773 23.0706
C 16.277 28.4141 23.7005
C 20.0564 20.6859 23.2289
C 32.6265 26.1072 22.9415
C 24.8146 27.8651 23.0862
C 30.8402 32.4269 23.4248
C 22.5881 26.7678 23.1077
C 24.6519 25.394 23.0372
C 23.5557 19.2492 23.2955
C 17.9675 33.2852 23.4659
C 26.7496 35.1663 23.4614
C 22.4659 35.5274 23.4176
C 17.3702 23.3548 23.4004
C 28.7774 33.779 23.5098
C 31.5042 31.1598 23.3197
C 24.1787 29.1485 23.129
C 26.2451 27.7722 23.0687
C 21.7959 25.5743 23.1071
C 23.8561 24.2022 23.037
C 20.2144 34.4107 23.3411
C 21.9561 28.0502 23.1577
C 26.0812 25.3 23.0206
C 25.3425 35.3 23.4783
C 21.4875 20.6101 23.2179
C 19.4226 21.9784 23.2283
C 22.4275 24.2859 23.0667
C 22.7492 29.2464 23.1641
C 26.8829 26.488 23.0336
C 25.7582 20.3529 23.1891
C 29.4215 32.5175 23.4889
C 17.5372 25.8479 23.4074
C 27.9707 21.4507 23.1472
C 30.1991 22.5129 23.0952
C 27.3691 33.8967 23.3595
C 31.0042 23.7094 23.0372
C 24.3344 20.442 23.1666
C 24.4904 22.9188 23.0387
C 20.3726 25.663 23.1725
C 18.1605 24.5538 23.3129
C 17.6981 28.321 23.4886
C 26.7118 24.0139 23.0161
C 20.5313 28.1415 23.2255
C 27.0403 28.9602 23.1115
C 21.6396 23.0927 23.0951
C 26.5475 21.5397 23.1019
C 24.9733 30.3354 23.1583
C 17.8429 30.7941 23.524
C 31.3332 28.6868 23.1016
C 22.2742 21.8065 23.1129
C 20.2088 23.1737 23.1662
C 25.9138 22.827 23.0325
C 23.6994 21.7224 23.0866
C 31.1756 26.2093 22.9953
C 19.7445 26.949 23.2448
C 18.6283 31.9881 23.4358
C 19.579 24.4636 23.201
C 18.3192 27.0421 23.3722
C 28.7763 22.6246 23.094
C 28.31 26.3904 23.0255
C 26.4037 30.2372 23.1644
C 23.0953 34.1988 23.3918
C 22.1185 30.5264 23.2234
C 30.6941 29.9592 23.2099
C 18.4781 29.515 23.4262
C 28.1431 23.9179 23.0349
C 30.3752 24.9998 23.0229
C 20.8495 33.1037 23.3386
C 19.8989 29.4295 23.2966
C 30.5398 27.4996 23.0403
C 28.9353 25.1029 23.0253
C 24.5299 34.0949 23.391
C 28.4747 28.8632 23.1125
C 29.11 27.5867 23.0502
C 20.6838 30.6211 23.2811
C 24.3359 31.6167 23.2106
C 20.0547 31.9027 23.3371
C 28.6235 31.3277 23.3199
C 22.9141 31.7137 23.2521
C 26.5632 32.7009 23.298
C 22.2938 33.0125 23.3323
C 27.1988 31.4262 23.2572
C 29.2679 30.0505 23.2092
C 25.1398 32.8078 23.2885
H 23.1948 15.8083 26.6314
H 14.7876 20.9441 26.8476
H 25.6885 15.7349 26.6156
H 32.1889 19.2248 26.8157
H 33.5004 21.3964 26.9848
H 13.586 23.118 27.0823
H 15.07 32.6528 27.2502
H 13.7549 30.5358 27.0975
H 19.0211 18.404 26.6879
H 21.1023 17.1042 26.5896
H 16.9055 19.6955 26.8158
H 33.6243 26.3172 27.0645
H 19.4255 34.9636 27.5737
H 33.7456 31.2158 27.53
H 23.7221 37.3667 27.6913
H 33.5699 23.8668 26.9288
H 17.2529 33.7794 27.4982
H 27.8517 16.9078 26.5782
H 30.0142 18.0651 26.6214
H 33.6777 28.7611 27.2911
H 32.5487 33.4115 27.7009
H 21.5658 36.1665 27.5759
H 26.2461 37.3264 27.6827
H 13.7002 28.0813 27.0634
H 13.6626 25.5999 27.2927
C 23.7821 16.7381 26.5631
C 25.1535 16.6963 26.5528
C 15.3494 21.8931 26.8268
C 31.6755 20.2042 26.8092
C 14.6848 23.0982 26.9626
C 32.3964 21.4036 26.9259
C 14.8547 30.5217 27.0077
C 15.5798 31.6879 27.0916
H 30.459 34.7204 27.6183
H 28.3721 36.0281 27.5795
C 21.6765 18.0439 26.5089
C 19.5935 19.349 26.6608
C 17.481 20.6408 26.8011
C 32.6612 31.275 27.3426
C 24.2646 36.4244 27.5091
C 31.9965 32.4977 27.4343
C 27.3271 17.8748 26.4876
C 25.6724 36.4079 27.4817
C 29.5035 19.0373 26.52
C 32.4766 23.8938 26.7716
C 32.5604 26.3682 26.7528
C 17.7697 32.8508 27.1858
C 19.924 34.0644 27.1603
C 14.7598 25.5824 27.1723
C 14.798 28.0525 26.9515
C 32.6187 28.8204 26.9726
C 22.0929 35.2353 27.303
C 23.0749 17.9846 26.4852
C 25.9301 17.9002 26.4685
C 16.7713 21.8531 26.7332
C 30.2592 20.2192 26.5828
C 15.4064 24.3342 26.973
C 31.7553 22.6685 26.7438
C 15.5117 29.2578 26.8814
C 20.9949 19.2752 26.4966
C 17.004 31.6781 27.0114
C 18.8986 20.5756 26.735
C 28.0935 19.0614 26.4342
C 29.8959 33.8112 27.3521
C 27.7997 35.1176 27.3403
C 15.46 26.8086 26.9798
C 24.0158 26.625 26.1333
C 31.9602 30.0786 27.0242
C 31.8243 25.1437 26.7366
C 23.513 35.2455 27.246
C 19.1769 32.8464 27.0925
C 31.8915 27.6256 26.8021
C 21.3505 34.0477 27.1627
C 30.5833 32.591 27.226
C 26.3853 35.1876 27.2736
C 23.3356 27.8786 26.1886
C 25.4467 26.5903 26.1262
C 23.2697 25.4068 26.1337
C 28.5 33.8858 27.2172
C 24.0851 29.0987 26.2375
C 26.1961 27.8084 26.1709
C 23.8296 19.2009 26.3817
C 21.9064 27.9062 26.2423
C 26.1247 25.3317 26.1219
C 25.2455 19.1608 26.373
C 17.5066 23.071 26.5998
C 21.8442 25.4409 26.1827
C 23.9545 24.1508 26.1212
C 16.826 24.3103 26.7075
C 29.5862 21.4968 26.4297
C 30.3297 22.7076 26.4899
C 16.9437 29.2352 26.7459
C 17.6845 30.4424 26.7799
C 25.5152 29.0667 26.2316
C 21.1601 26.6898 26.239
C 25.3788 24.1111 26.1197
C 27.4114 20.3314 26.327
C 21.7335 20.4988 26.3591
C 19.6318 21.798 26.5325
C 30.5375 30.1392 26.7866
C 16.89 26.777 26.727
C 24.2072 34.0099 26.9592
C 30.3926 25.1955 26.4893
C 29.854 31.3863 26.8831
C 19.8609 31.6183 26.7738
C 25.6291 33.9771 26.9842
C 30.4641 27.6773 26.5449
C 22.0366 32.8136 26.823
C 21.2222 29.1552 26.3569
C 23.4016 30.3488 26.3621
C 27.6259 27.7687 26.2289
C 27.5512 25.2891 26.1794
C 21.0986 24.221 26.2163
C 25.9909 20.3752 26.2878
C 23.2126 22.9316 26.1593
C 23.1506 20.457 26.3014
C 18.9367 23.0338 26.4516
C 28.1618 21.5445 26.2934
C 17.5687 25.5334 26.606
C 17.6244 27.9904 26.6136
C 21.0422 21.7523 26.3389
C 21.9693 30.3714 26.4288
C 29.6565 23.975 26.3679
C 28.3002 26.5073 26.2383
C 21.7819 22.9671 26.2033
C 19.1148 30.4184 26.6554
C 27.75 32.6768 26.8872
C 19.7306 26.7204 26.3423
C 29.7261 26.4613 26.3954
C 26.0566 22.852 26.1575
C 21.2876 31.6079 26.6485
C 26.2628 30.2819 26.3625
C 29.7966 28.9312 26.5274
C 23.4609 32.8021 26.7332
C 23.8927 21.6772 26.2072
C 19.6726 24.2517 26.3126
C 19.7955 29.1784 26.46
C 28.2309 24.0232 26.2241
C 25.3137 21.6363 26.2038
C 18.9859 25.5051 26.3934
C 27.4851 22.8066 26.2069
C 19.0485 27.9641 26.4497
C 24.1473 31.5632 26.4994
C 28.4318 31.4403 26.7003
C 26.3213 32.7303 26.7725
C 28.3742 28.9848 26.3646
C 25.5776 31.5295 26.5074
C 27.6935 30.2388 26.441
Li 31.6209 21.8735 21.2257
Li 16.7981 32.0301 21.8281
Li 16.1579 22.3013 21.6494
Li 24.5707 35.7761 21.5179
Li 31.7712 31.6447 21.2798
Li 29.0356 32.9753 21.5045
Li 21.7567 34.3718 21.6084
Li 20.9245 18.6986 21.479
Li 15.1874 28.631 21.8788
Li 16.063 25.5082 21.5368
Li 26.892 19.4619 21.3281
Li 33.1936 28.1225 20.9721
Li 33.1418 27.7994 25.0866
Li 31.7052 24.8465 21.2232
Li 18.4679 19.9906 21.3664
Li 24.5182 17.8931 21.3369
Li 29.4401 19.0073 21.5801
Li 18.4868 34.3212 21.3243
Li 29.8322 34.1293 17.7966
Li 31.9812 24.876 24.7334
Li 27.2692 35.5165 17.9158
Li 27.331 34.2635 25.3913
Li 18.4477 33.9907 25.4658
Li 21.4448 34.6981 25.2199
Li 31.6387 31.6525 25.3949
Li 24.7569 36.4195 25.5077
Li 14.9655 25.6048 25.2075
Li 32.2326 21.1836 24.9419
Li 18.1646 19.5883 25.1629
Li 15.0791 25.661 18.1214
