632
592nano.out 0 0 0
C 22.6765 21.9442 16.7026
C 20.528 23.1565 16.7844
C 21.974 20.7114 16.4993
C 24.1072 21.9596 16.708
C 19.8254 21.9177 16.6137
C 19.804 24.3861 16.8546
C 29.0725 25.7209 16.5936
C 29.052 28.1932 16.5859
C 28.3697 24.4789 16.6551
C 20.4541 30.584 16.9128
C 22.5763 31.845 16.8197
C 19.7572 29.3381 16.9371
C 28.3276 29.4237 16.6371
C 24.0041 31.8616 16.7904
C 24.8297 20.7325 16.5692
C 21.9539 23.1708 16.8195
C 18.3763 24.3716 16.7535
C 26.9606 21.9905 16.6098
C 28.3519 26.9511 16.6888
C 18.3559 26.8458 16.82
C 21.8804 30.6002 16.929
C 20.5473 20.7017 16.4303
C 29.0901 23.2454 16.5526
C 26.2406 23.2172 16.7396
C 19.7776 26.8602 16.9504
C 26.1706 30.6474 16.7832
C 18.3296 29.3239 16.8124
C 30.49 25.7311 16.3784
C 26.8667 31.8891 16.6131
C 30.4684 28.1948 16.3621
C 19.7213 31.8134 16.8058
C 29.0192 30.6632 16.456
C 26.9004 29.4152 16.7885
C 24.7416 30.6336 16.8673
C 21.8353 33.0623 16.6737
C 24.6989 33.0975 16.6012
C 24.813 23.1995 16.7941
C 26.9472 24.4631 16.7666
C 20.5048 25.6283 16.9509
C 20.4812 28.1082 16.99
C 26.2495 20.7554 16.5198
C 17.6597 25.5979 16.7246
C 22.7015 19.4806 16.352
C 28.3909 22.0095 16.5435
C 18.3999 21.9015 16.5608
C 17.6404 28.084 16.7156
C 24.1208 19.4885 16.4339
C 17.679 23.1214 16.6311
C 31.1827 26.9669 16.2463
C 28.2887 31.8867 16.4381
C 26.1212 33.1079 16.5112
C 20.4114 33.0485 16.679
C 26.9267 26.9381 16.8242
C 22.6112 29.3701 16.9821
C 22.6605 24.4154 16.916
C 30.5132 23.2601 16.4044
C 31.2068 24.4916 16.2799
C 17.6047 30.5594 16.7412
C 18.2948 31.7981 16.7534
C 31.1583 29.4325 16.156
C 26.1998 28.1711 16.8747
C 24.0429 29.3868 16.9535
C 30.4378 30.6611 16.1995
C 26.2245 25.6936 16.8535
C 21.911 28.1244 17.0149
C 22.5243 34.2943 16.447
C 21.9357 25.645 16.9793
C 24.0897 24.432 16.8939
C 23.9499 34.313 16.4092
C 19.8326 19.4618 16.1534
C 24.7709 28.156 16.9522
C 22.639 26.8916 17.0058
C 24.7942 25.6763 16.9228
C 21.996 18.2487 16.079
C 17.6995 20.6536 16.4043
C 26.9831 19.5235 16.3149
C 29.1246 20.7749 16.4161
C 16.2309 25.5805 16.5209
C 24.8476 18.2632 16.3121
C 16.2187 28.0783 16.4788
C 16.2556 23.1051 16.5164
C 24.0675 26.9076 16.977
C 32.6107 26.9752 15.9795
C 20.5836 18.2694 15.9252
C 18.4227 19.4652 16.2256
C 19.6674 34.2812 16.5288
C 31.2338 22.0211 16.3328
C 28.9781 33.1233 16.1514
C 26.805 34.3463 16.2227
C 32.6248 24.4959 16.0307
C 16.1804 30.5448 16.6157
C 32.5813 29.4242 15.8693
C 17.5643 33.0317 16.6381
C 21.7646 35.5165 16.2423
C 31.1217 31.9021 15.9258
C 24.6432 35.5491 16.1445
C 26.2582 18.3016 16.264
C 15.5691 24.3395 16.4412
C 33.2904 25.7363 15.8319
C 28.3986 19.5608 16.3061
C 33.2848 28.2071 15.8786
C 30.527 20.8099 16.3714
C 15.5065 26.8242 16.5254
C 22.7487 17.0311 16.0766
C 18.2605 34.2433 16.5495
C 20.3687 35.4915 16.3453
C 15.5219 29.3044 16.4779
C 16.2691 20.6677 16.4098
C 24.1196 17.0407 16.2072
C 15.5746 21.8546 16.4511
C 30.3702 33.1123 15.9471
C 28.2481 34.3668 16.2026
C 26.0645 35.5348 16.091
H 20.0488 17.3245 15.7341
H 17.8777 18.5127 16.108
C 33.3319 23.2513 16.0694
C 32.6577 22.0602 16.2166
C 33.2264 30.6733 15.5846
C 15.4682 31.7811 16.5944
C 16.1345 32.9819 16.5923
C 32.5105 31.8742 15.6046
C 22.4907 36.7285 15.9753
C 23.8829 36.7373 15.9225
H 34.3762 28.2161 15.7123
H 34.3867 25.7426 15.6839
H 26.7984 17.3544 16.0437
H 22.2044 16.079 15.9667
H 15.7321 19.7057 16.351
H 14.4815 24.3188 16.2062
H 19.7998 36.4293 16.2282
H 17.6972 35.1866 16.4383
H 31.0887 19.8604 16.3195
H 14.4134 29.2993 16.4066
H 24.6838 16.0923 16.2083
H 28.9715 18.6376 16.0711
H 14.4708 21.8572 16.428
H 14.4609 26.8237 16.1494
H 30.8772 34.049 15.6413
H 26.5859 36.4686 15.8016
H 34.4324 23.2616 15.9669
H 33.2062 21.103 16.2176
H 28.7161 35.2332 15.6911
H 34.3022 30.6658 15.347
H 15.5798 33.9339 16.5188
H 14.3658 31.7478 16.5541
H 21.9189 37.6566 15.8199
H 33.0219 32.8254 15.3842
H 24.4221 37.6783 15.7298
C 23.4043 20.6754 19.8047
C 19.0928 23.1421 19.8193
C 21.2464 21.913 19.853
C 21.976 20.686 19.8082
C 26.2583 20.6873 19.6891
C 19.8224 21.9167 19.7541
C 25.5393 21.9196 19.8028
C 28.4033 21.9347 19.6575
C 24.1125 21.9132 19.86
C 27.6799 23.162 19.7559
C 19.074 25.6113 19.9867
C 19.7979 24.3795 19.9521
C 24.114 19.4363 19.6958
C 19.0514 28.0908 20.0769
C 17.6435 25.6014 19.9179
C 28.3893 24.4036 19.7651
C 27.7004 20.6945 19.6486
C 17.623 28.0879 20.0539
C 29.8146 24.4128 19.6254
C 17.666 23.1272 19.7313
C 26.248 23.1615 19.8437
C 19.7667 29.3283 20.0715
C 25.5445 19.4389 19.6752
C 21.9568 23.1509 19.9461
C 19.7842 26.8529 20.0641
C 19.0492 30.5601 19.9938
C 29.8332 21.9344 19.5567
C 29.8027 26.8963 19.6481
C 28.3781 26.8859 19.812
C 28.3682 29.3704 19.8228
C 16.906 26.8407 20.0031
C 24.0628 31.8254 19.9672
C 21.9173 30.5689 20.0317
C 30.5345 23.1771 19.5075
C 16.9379 24.353 19.8194
C 27.6487 30.6018 19.8546
C 23.3886 23.1504 19.9445
C 25.4912 31.8397 19.9354
C 21.2312 24.3833 19.9966
C 21.19 31.8005 19.9259
C 26.2174 30.5978 19.9389
C 27.6721 25.6424 19.8549
C 30.5161 25.6638 19.5413
C 21.2042 29.3327 20.0808
C 29.7984 29.3758 19.6923
C 27.6609 28.1243 19.8801
C 23.3509 30.5801 20.0269
C 21.2662 19.4431 19.7433
C 16.8993 29.3267 20.0098
C 23.3364 33.0567 19.8963
C 19.1066 20.681 19.563
C 17.6168 30.5584 19.9402
C 19.7676 31.7905 19.8969
C 30.4995 28.1372 19.5704
C 21.8997 33.0358 19.8231
C 25.5316 24.393 19.9355
C 21.2123 26.8582 20.0812
C 25.5116 29.3565 19.9964
C 23.4018 18.1809 19.6037
C 28.4366 19.446 19.6347
C 28.3592 31.8522 19.769
C 26.2418 25.6379 19.9416
C 26.1952 33.0848 19.8809
C 21.9291 28.0995 20.0921
C 24.0746 29.3474 20.0461
C 26.2323 28.1186 19.969
C 24.0978 24.3896 19.98
C 21.9415 25.6226 20.0491
C 16.9536 21.8833 19.5421
C 19.8312 19.4515 19.7025
C 26.2674 18.1754 19.6726
C 21.976 18.2095 19.6937
C 30.5109 30.611 19.6644
C 30.5638 20.6891 19.459
C 17.7028 20.6786 19.4804
C 24.0423 34.2998 19.8713
C 23.3623 28.1052 20.0696
C 25.5201 26.8737 19.9947
C 15.4524 26.8248 20.0514
C 23.3747 25.6261 20.0333
C 31.9556 25.6684 19.391
C 27.6288 33.0945 19.8071
C 24.0877 26.8682 20.0419
C 31.9738 23.1766 19.363
C 15.4826 24.322 19.8699
C 29.7943 31.8553 19.7275
C 29.8461 19.4593 19.5459
C 15.4469 29.336 19.9635
C 25.4766 34.3169 19.8947
C 31.9134 28.1524 19.3282
C 27.7093 18.215 19.8464
C 19.0491 33.0235 19.7172
C 16.893 31.7949 19.7775
C 21.1795 34.2727 19.6541
C 24.129 16.9774 19.4504
C 14.7342 28.0632 20.1058
C 32.6626 24.4307 19.3785
C 14.773 25.5704 20.075
C 32.6207 26.9245 19.2933
C 25.5403 16.9737 19.5125
C 15.5326 21.8884 19.5267
C 17.6229 33.0275 19.7833
C 31.9728 20.7225 19.3304
C 19.7657 34.2367 19.6172
C 31.9618 30.6248 19.5599
H 19.2891 18.4997 19.5107
H 21.4174 17.2528 19.6284
C 32.6614 21.9451 19.2651
C 23.3008 35.5578 19.8597
H 17.1748 19.7284 19.2871
C 32.6243 29.3819 19.3362
C 14.8176 23.0798 19.7474
C 21.8821 35.5071 19.715
H 30.3878 18.5116 19.3578
C 14.7704 30.5657 19.8356
C 15.4785 31.7706 19.7545
H 28.2643 17.253 19.8366
C 28.3468 34.3599 19.9004
H 23.58 16.0337 19.3126
H 13.6411 28.0535 19.9555
C 30.5338 33.1237 19.7652
C 26.1917 35.5926 19.9448
H 33.7764 24.41 19.3817
H 14.999 20.9371 19.3805
H 13.6808 25.5455 20.2456
H 33.718 26.9699 19.0965
H 26.0899 16.0201 19.4341
H 32.5262 19.7719 19.2674
H 17.0919 33.9341 19.431
H 19.2277 35.1669 19.3437
H 33.7561 21.9625 19.1608
H 33.7039 29.3802 19.0804
H 13.715 23.0596 19.7928
H 13.6694 30.5715 19.7517
C 32.6573 31.8723 19.5284
H 21.3125 36.453 19.6718
C 24.0292 36.7912 19.8392
H 14.9387 32.7201 19.6106
C 27.6252 35.5702 20.0048
C 29.7768 34.3393 19.9491
C 31.9415 33.1101 19.6547
C 25.4531 36.7981 19.9114
H 33.7612 31.8708 19.5204
H 23.469 37.7398 19.8808
H 28.1723 36.5124 20.187
H 30.3201 35.2825 20.1357
H 32.4959 34.0617 19.6846
H 25.9922 37.758 19.9655
H 15.1247 20.095 23.4212
H 21.3716 15.9438 23.6318
H 17.2019 18.6675 23.2429
H 19.3016 17.3023 23.5449
H 23.8718 15.7959 23.5655
H 14.0106 22.3601 23.3889
C 21.979 16.8591 23.5494
C 15.7431 21.0036 23.3552
H 32.7431 20.0976 22.9837
C 17.811 19.5909 23.3057
C 19.9009 18.227 23.4869
C 23.3624 16.7718 23.5019
H 26.0829 16.8953 23.5491
H 34.1693 22.2059 22.8855
C 15.1099 22.2873 23.3709
H 34.6764 29.6918 23.1465
H 14.2009 24.8783 23.3533
H 14.728 32.2845 23.8261
H 28.2626 17.9919 23.5114
H 30.5336 19.1016 23.4094
H 16.0862 34.3847 23.7054
H 14.4048 27.3313 23.7072
H 34.5265 27.178 22.9788
H 22.8341 37.6603 23.4686
H 33.5628 31.9354 23.373
H 14.5895 29.7215 23.9621
H 34.3326 24.7055 22.8795
C 17.1495 20.8743 23.3145
C 21.3241 18.1185 23.543
H 25.364 37.4815 23.5195
C 19.2487 19.4778 23.3794
H 20.5685 36.5724 23.3612
C 32.2785 21.0973 23.0146
C 33.0741 22.2879 22.9574
H 18.3272 35.4989 23.4878
C 25.5838 17.8735 23.421
C 33.5736 29.7542 23.172
C 15.2981 24.7812 23.4682
H 31.4742 33.3231 23.532
C 15.8183 32.1983 23.6805
C 24.1632 17.9446 23.4469
H 27.4171 36.0626 23.4441
H 29.4244 34.6758 23.6192
C 15.8867 23.48 23.3476
C 16.5926 33.4001 23.6456
C 27.7959 18.9774 23.3035
C 32.9489 31.0191 23.2994
C 30.0338 20.035 23.0721
C 23.3122 36.6689 23.4836
C 15.515 27.2428 23.665
C 33.4228 27.2608 22.9905
C 15.6784 29.6939 23.7383
C 33.236 24.7836 22.9347
C 24.7405 36.5749 23.5463
C 26.3661 19.0393 23.3619
C 30.859 21.1975 23.0421
C 21.0552 35.5843 23.3715
C 28.5986 20.1377 23.0745
C 16.1063 25.96 23.5355
C 32.4749 23.5691 22.9736
C 18.8167 34.5086 23.3985
C 22.1099 19.3254 23.3755
C 32.8078 28.5719 23.102
C 17.9703 22.0839 23.2633
C 16.4226 30.9058 23.5686
C 24.0273 26.6659 23.0714
C 16.306 28.4178 23.7402
C 20.0423 20.6976 23.2729
C 32.6355 26.0706 22.9699
C 24.8267 27.855 23.081
C 30.872 32.3957 23.4579
C 22.5988 26.7632 23.1007
C 24.6583 25.3762 23.0514
C 23.5272 19.2356 23.3282
C 17.992 33.3229 23.4756
C 26.789 35.1555 23.4473
C 22.4965 35.5242 23.4232
C 17.3429 23.3785 23.3073
C 28.8129 33.7586 23.5398
C 31.5318 31.1231 23.3477
C 24.1958 29.1425 23.1155
C 26.2573 27.754 23.0733
C 21.7997 25.5694 23.1024
C 23.8567 24.1889 23.0527
C 20.2473 34.4212 23.3634
C 21.9702 28.0507 23.1472
C 26.0885 25.2778 23.0475
C 25.3801 35.2929 23.4885
C 21.4709 20.6085 23.2489
C 19.3996 21.9855 23.2108
C 22.4254 24.2803 23.0722
C 22.7649 29.2446 23.1516
C 26.8904 26.4673 23.052
C 25.735 20.3392 23.2295
C 29.4521 32.4933 23.4978
C 17.5408 25.8592 23.42
C 27.9637 21.438 23.0732
C 30.2076 22.4911 23.0393
C 27.4074 33.8846 23.3576
C 31.0084 23.6871 23.0257
C 24.3108 20.4267 23.1982
C 24.4831 22.9028 23.0606
C 20.3733 25.663 23.1672
C 18.1488 24.5656 23.2937
C 17.7163 28.3283 23.5173
C 26.716 23.993 23.0555
C 20.5446 28.145 23.2192
C 27.0563 28.9407 23.1092
C 21.6274 23.0909 23.0983
C 26.5367 21.5241 23.1283
C 24.9973 30.3288 23.1499
C 17.8677 30.809 23.4797
C 31.3487 28.653 23.118
C 22.2614 21.7992 23.1262
C 20.2006 23.1817 23.1483
C 25.9062 22.8121 23.0698
C 23.6816 21.7091 23.1082
C 31.1827 26.1799 23.0111
C 19.7519 26.9545 23.2416
C 18.6506 32.0108 23.4301
C 19.5755 24.4701 23.1896
C 18.332 27.0473 23.3832
C 28.7758 22.608 23.0589
C 28.3171 26.3665 23.045
C 26.4256 30.2219 23.1564
C 23.1261 34.193 23.4003
C 22.1383 30.5309 23.2142
C 30.7154 29.9273 23.2277
C 18.4965 29.526 23.4308
C 28.1491 23.8957 23.0592
C 30.3788 24.9767 23.0325
C 20.8744 33.1071 23.3421
C 19.9192 29.4362 23.2952
C 30.5499 27.4707 23.0531
C 28.9398 25.0827 23.0445
C 24.5628 34.0902 23.395
C 28.4904 28.8406 23.1154
C 29.1212 27.5627 23.0619
C 20.7039 30.6288 23.2756
C 24.3646 31.6147 23.211
C 20.0736 31.9161 23.3394
C 28.6518 31.3052 23.3191
C 22.9417 31.7128 23.2486
C 26.5969 32.6877 23.2869
C 22.3216 33.0101 23.3318
C 27.2268 31.4082 23.2508
C 29.2902 30.0249 23.2147
C 25.1726 32.8016 23.2843
H 23.1943 15.8024 26.6228
H 14.8161 20.9254 27.2588
H 25.6955 15.7277 26.5821
H 32.1941 19.2682 27.0147
H 33.4708 21.416 27.2452
H 13.6166 23.1165 27.3905
H 15.0577 32.6984 27.3054
H 13.7176 30.5304 27.2484
H 19.0806 18.385 27.0609
H 21.1147 17.0991 26.6735
H 16.9517 19.6552 27.2226
H 33.6215 26.3407 27.0542
H 19.4087 34.9793 27.5365
H 33.748 31.2403 27.4973
H 23.7228 37.3312 27.8361
H 33.5559 23.889 27.0518
H 17.2442 33.8198 27.4722
H 27.8453 16.8994 26.5712
H 30.0344 18.0423 26.8386
H 33.6797 28.7842 27.2684
H 32.5477 33.4359 27.671
H 21.5502 36.1734 27.5589
H 26.227 37.2999 27.7577
H 13.7 28.0711 27.2785
H 13.6938 25.6109 27.5902
C 23.7852 16.7298 26.5488
C 25.1596 16.6896 26.5195
C 15.3813 21.8671 27.1894
C 31.6788 20.2363 26.9085
C 14.7091 23.0897 27.2545
C 32.3909 21.4384 27.0293
C 14.8202 30.5203 27.2032
C 15.5596 31.7185 27.2244
H 30.4502 34.7373 27.5987
H 28.3561 36.0374 27.554
C 21.6903 18.0362 26.5794
C 19.6059 19.3217 26.7751
C 17.4911 20.5778 26.9257
C 32.6601 31.2938 27.3275
C 24.2573 36.4011 27.5919
C 31.9943 32.5168 27.4206
C 27.3318 17.8736 26.5262
C 25.6543 36.3868 27.5378
C 29.5155 19.015 26.778
C 32.4676 23.9236 26.8803
C 32.5565 26.3839 26.7553
C 17.7503 32.8878 27.1472
C 19.9132 34.0679 27.1608
C 14.7623 25.5792 27.3183
C 14.7898 28.043 27.1106
C 32.6159 28.8354 26.966
C 22.0769 35.234 27.3271
C 23.0867 17.9768 26.5
C 25.9289 17.8957 26.4532
C 16.7886 21.8068 26.9766
C 30.2571 20.2244 26.7711
C 15.4143 24.3266 27.1622
C 31.7481 22.6985 26.855
C 15.4893 29.2643 27.046
C 21.0071 19.2591 26.5772
C 16.9722 31.7016 27.0566
C 18.9024 20.5412 26.7866
C 28.0923 19.0514 26.6268
C 29.8906 33.8219 27.3461
C 27.792 35.1217 27.3245
C 15.4617 26.8035 27.1282
C 24.0124 26.6232 26.1212
C 31.9574 30.0934 27.0212
C 31.822 25.1634 26.7842
C 23.4965 35.2295 27.3218
C 19.1596 32.8641 27.0667
C 31.8904 27.6401 26.803
C 21.3362 34.0533 27.1721
C 30.5787 32.6016 27.2259
C 26.3759 35.1802 27.2937
C 23.3289 27.8793 26.1718
C 25.4465 26.5881 26.1198
C 23.2614 25.4031 26.1241
C 28.4952 33.8903 27.218
C 24.0769 29.1019 26.2239
C 26.1938 27.8104 26.1674
C 23.8336 19.1962 26.3849
C 21.8955 27.9073 26.2268
C 26.1262 25.3312 26.1219
C 25.252 19.1565 26.3717
C 17.5152 23.0422 26.7798
C 21.8318 25.4339 26.179
C 23.9462 24.1453 26.1163
C 16.8342 24.2892 26.8665
C 29.5864 21.501 26.5452
C 30.3259 22.722 26.5806
C 16.9194 29.2407 26.8167
C 17.6557 30.4541 26.8002
C 25.5104 29.0672 26.2262
C 21.1467 26.6863 26.2356
C 25.3744 24.11 26.1202
C 27.4241 20.3278 26.4114
C 21.7366 20.4841 26.3979
C 19.6268 21.7728 26.5255
C 30.5326 30.1487 26.7932
C 16.8842 26.767 26.8132
C 24.1953 34.0014 27.0094
C 30.39 25.2069 26.5301
C 29.8492 31.3933 26.8937
C 19.8427 31.6262 26.7539
C 25.6213 33.973 27.0109
C 30.4623 27.6902 26.5525
C 22.0233 32.8146 26.8419
C 21.2081 29.159 26.34
C 23.392 30.3519 26.353
C 27.6249 27.7716 26.231
C 27.5556 25.2909 26.1886
C 21.0868 24.2085 26.2384
C 26.0049 20.3685 26.295
C 23.2053 22.923 26.1646
C 23.1494 20.4487 26.3124
C 18.9354 23.0137 26.5264
C 28.1625 21.5524 26.3615
C 17.5649 25.5195 26.6922
C 17.6052 27.989 26.663
C 21.0409 21.7363 26.3647
C 21.957 30.3762 26.4129
C 29.6531 23.9852 26.4225
C 28.304 26.5122 26.246
C 21.7753 22.9569 26.2306
C 19.0896 30.4269 26.6363
C 27.7454 32.6778 26.9021
C 19.7149 26.7124 26.3613
C 29.7281 26.4698 26.4111
C 26.0523 22.8505 26.1685
C 21.2699 31.6122 26.6436
C 26.2562 30.2841 26.3677
C 29.792 28.9393 26.5337
C 23.4496 32.7989 26.7555
C 23.8914 21.669 26.2044
C 19.6628 24.2357 26.3746
C 19.775 29.1829 26.4529
C 28.2308 24.0278 26.2535
C 25.3167 21.6283 26.1999
C 18.9751 25.4904 26.447
C 27.4808 22.8089 26.2414
C 19.0294 27.9628 26.4673
C 24.1383 31.5664 26.5063
C 28.4261 31.4436 26.7146
C 26.3156 32.729 26.7861
C 28.3684 28.9901 26.3702
C 25.57 31.5311 26.5225
C 27.6866 30.2421 26.4509
Li 31.6025 21.8908 21.1587
Li 16.8149 32.0736 21.8075
Li 16.2166 22.2289 21.5355
Li 24.6084 35.7328 21.6051
Li 31.6299 31.8389 21.4007
Li 28.854 33.0168 21.5476
Li 21.7655 34.3454 21.6377
Li 20.9052 18.7008 21.5997
Li 15.3161 28.7019 21.9553
Li 16.3087 25.4073 21.6057
Li 26.9682 19.786 21.4744
Li 33.1351 28.1433 21.0592
Li 33.1388 27.7948 25.0909
Li 31.6883 24.8661 21.2942
Li 18.5749 20.3149 21.4945
Li 24.6864 17.8303 21.3782
Li 29.3407 18.8363 21.5248
Li 18.4776 34.3177 21.3293
Li 29.8256 34.1027 17.8209
Li 31.8623 24.9015 24.7544
Li 27.2604 35.5111 17.9126
Li 27.3652 34.2446 25.3865
Li 18.4533 34.0669 25.4794
Li 21.632 34.3477 25.1535
Li 31.6183 31.6525 25.4062
Li 24.6835 35.7624 25.5384
Li 14.9639 25.9372 25.2817
Li 31.6765 21.5887 25.0284
Li 18.0777 19.2537 25.336
Li 14.7176 25.4356 18.0066
Li 23.2283 35.9679 17.8624
Li 20.9214 18.7657 17.8828
Li 32.3963 30.8946 17.549
Li 15.8166 22.8654 25.3396
Li 27.7285 18.2095 17.7851
Li 15.3083 28.1887 18.2146
Li 33.3008 25.5367 17.7935
Li 29.1712 19.4912 24.9137
Li 15.3742 30.9581 25.2949
Li 18.3859 33.8619 18.1214
