612
592nano.out 0 0 0
C 22.6652 21.8202 16.7664
C 20.5171 23.0374 16.7757
C 21.9625 20.5838 16.6237
C 24.0885 21.8304 16.7929
C 19.8168 21.7999 16.6334
C 19.7946 24.2635 16.8139
C 29.0445 25.5649 16.7878
C 29.0213 28.036 16.75
C 28.3447 24.326 16.8202
C 20.4435 30.4418 16.9338
C 22.5715 31.6961 16.9337
C 19.7441 29.2014 16.9228
C 28.2972 29.2643 16.7422
C 23.996 31.7071 16.9052
C 24.8113 20.6008 16.6738
C 21.9421 23.0483 16.8431
C 18.3688 24.2517 16.7106
C 26.9391 21.8453 16.7542
C 28.3241 26.7981 16.8517
C 18.3429 26.718 16.8048
C 21.8703 30.4556 16.9821
C 20.5397 20.5745 16.5592
C 29.065 23.0933 16.7174
C 26.2174 23.0778 16.8647
C 19.7698 26.7314 16.9088
C 26.1467 30.4888 16.8376
C 18.3177 29.1868 16.8167
C 30.4665 25.5726 16.6408
C 26.8396 31.7236 16.6554
C 30.4455 28.0413 16.5993
C 19.7172 31.6698 16.851
C 28.9924 30.5005 16.5596
C 26.8756 29.262 16.87
C 24.7235 30.4809 16.9409
C 21.8425 32.9239 16.8524
C 24.6946 32.9483 16.7709
C 24.7922 23.0675 16.8869
C 26.9191 24.316 16.9001
C 20.4933 25.5039 16.9121
C 20.4685 27.9724 16.9648
C 26.2346 20.6116 16.6617
C 17.6479 25.4782 16.7105
C 22.6871 19.3599 16.5075
C 28.3625 21.8564 16.693
C 18.3942 21.7924 16.5329
C 17.6221 27.9455 16.7588
C 24.1051 19.37 16.5334
C 17.6748 23.013 16.5766
C 31.1633 26.8124 16.5471
C 28.2602 31.7189 16.5002
C 26.1095 32.9539 16.6234
C 20.4192 32.9095 16.8141
C 26.8991 26.7904 16.9476
C 22.5964 29.2282 17.0232
C 22.643 24.2861 16.9377
C 30.4882 23.1069 16.5978
C 31.1836 24.3393 16.5517
C 17.5983 30.4158 16.734
C 18.2925 31.6516 16.7575
C 31.1405 29.2787 16.4509
C 26.1763 28.0208 16.9727
C 24.023 29.2401 17.0181
C 30.419 30.5021 16.4173
C 26.1973 25.5488 16.9658
C 21.8953 27.9857 17.0187
C 22.5453 34.163 16.7698
C 21.9193 25.5161 16.9718
C 24.0694 24.2976 16.9572
C 23.9646 34.1739 16.7322
C 19.8343 19.3313 16.3959
C 24.7492 28.0106 17.0206
C 22.6205 26.7575 17.0181
C 24.7716 25.5387 16.996
C 21.9716 18.1211 16.349
C 17.6968 20.5414 16.3779
C 26.9622 19.3739 16.5208
C 29.0861 20.6139 16.5638
C 16.2117 25.4671 16.5841
C 24.8395 18.1387 16.3922
C 16.186 27.9283 16.6213
C 16.2385 23.0103 16.4644
C 24.048 26.7697 17.0266
C 32.5935 26.8183 16.3714
C 20.575 18.1287 16.306
C 18.4205 19.349 16.3191
C 19.6887 34.1454 16.7099
C 31.2061 21.8595 16.4891
C 28.9429 32.9502 16.1895
C 26.8048 34.1993 16.4291
C 32.6171 24.358 16.3953
C 16.1623 30.3901 16.597
C 32.571 29.2754 16.2998
C 17.5703 32.8945 16.6554
C 21.8068 35.3938 16.6816
C 31.1094 31.7423 16.2298
C 24.6749 35.4155 16.5909
C 26.2342 18.1624 16.4038
C 15.5447 24.217 16.4849
C 33.2858 25.5804 16.3133
C 28.3708 19.4067 16.4965
C 33.2622 28.0575 16.2663
C 30.5058 20.6559 16.492
C 15.519 26.6912 16.5539
C 22.7304 16.9031 16.2311
C 18.2719 34.1011 16.6496
C 20.4088 35.3616 16.6619
C 15.4955 29.1681 16.5527
C 16.2597 20.5661 16.2896
C 24.0977 16.9129 16.2501
C 15.5654 21.7431 16.333
C 30.372 32.9378 16.1437
C 28.208 34.1707 16.223
C 26.0668 35.4027 16.4488
H 20.0331 17.1761 16.1836
H 17.8794 18.3953 16.1978
C 33.3139 23.0975 16.3197
C 32.6421 21.9084 16.3673
C 33.2415 30.5372 16.1805
C 15.4655 31.6492 16.5137
C 16.133 32.841 16.5462
C 32.542 31.7184 16.1443
C 22.5483 36.6261 16.6037
C 23.9145 36.6347 16.5663
H 34.3589 28.0664 16.1423
H 34.3818 25.5899 16.1901
H 26.7919 17.2153 16.309
H 22.1792 15.9551 16.1201
H 15.7261 19.6072 16.1812
H 14.444 24.2086 16.4075
H 19.8492 36.3106 16.5913
H 17.7138 35.0503 16.5697
H 31.0604 19.7051 16.4142
H 14.3954 29.155 16.4623
H 24.6644 15.9716 16.1596
H 28.9268 18.4578 16.408
H 14.4654 21.7463 16.2644
H 14.4186 26.68 16.4678
H 30.909 33.8751 15.9061
H 26.6025 36.3618 16.3433
H 34.4112 23.1186 16.2136
H 33.1867 20.9514 16.304
H 28.7214 35.1068 15.9352
H 34.3407 30.5436 16.0967
H 15.5814 33.794 16.4806
H 14.3659 31.6247 16.4297
H 21.9822 37.5712 16.5527
H 33.0766 32.6774 16.0554
H 24.4646 37.5898 16.4904
C 23.3993 20.5708 19.8004
C 19.1101 23.0375 19.8028
C 21.2532 21.8042 19.8325
C 21.9784 20.5741 19.7394
C 26.2591 20.5826 19.7671
C 19.8294 21.8117 19.7399
C 25.5392 21.8136 19.9057
C 28.3982 21.8243 19.8168
C 24.1122 21.809 19.9171
C 27.6808 23.0567 19.9295
C 19.0944 25.5123 19.9235
C 19.8128 24.2778 19.9244
C 24.1134 19.3348 19.67
C 19.0661 27.9853 19.9992
C 17.6715 25.5017 19.8243
C 28.386 24.2996 19.9349
C 27.6908 20.5861 19.7258
C 17.6414 27.971 19.8881
C 29.811 24.3085 19.8115
C 17.6805 23.0254 19.6909
C 26.2491 23.0539 19.9694
C 19.7723 29.2283 20.0454
C 25.5388 19.3389 19.645
C 21.9608 23.0413 19.9514
C 19.8006 26.7589 20.0086
C 19.0444 30.4587 20.0011
C 29.833 21.832 19.7332
C 29.8002 26.7854 19.8164
C 28.3748 26.7803 19.9532
C 28.369 29.2611 19.9384
C 16.9397 26.7294 19.7882
C 24.0556 31.7155 20.0323
C 21.912 30.4735 20.092
C 30.5322 23.0713 19.7137
C 16.9596 24.2527 19.721
C 27.6489 30.4978 19.9801
C 23.3915 23.0431 19.9828
C 25.4876 31.7219 20.0121
C 21.2403 24.277 19.9855
C 21.1824 31.7072 20.0255
C 26.2147 30.4893 20.0286
C 27.6676 25.5372 19.9906
C 30.5111 25.5473 19.7215
C 21.2048 29.2343 20.0891
C 29.7938 29.2591 19.7959
C 27.6582 28.0185 19.9908
C 23.3452 30.4764 20.0792
C 21.2676 19.33 19.5423
C 16.9124 29.2052 19.8234
C 23.3271 32.946 19.9664
C 19.1182 20.5685 19.5402
C 17.6077 30.4452 19.883
C 19.7539 31.6942 19.9895
C 30.4974 28.0252 19.7044
C 21.8998 32.9429 19.9465
C 25.5297 24.29 20.0247
C 21.2301 26.7574 20.0562
C 25.505 29.2473 20.0579
C 23.396 18.0952 19.5013
C 28.4166 19.3338 19.5434
C 28.3543 31.7389 19.9127
C 26.2384 25.5325 20.0358
C 26.1931 32.9638 19.9308
C 21.9345 28.0002 20.087
C 24.0723 29.2434 20.0824
C 26.227 28.0116 20.0486
C 24.0997 24.2847 20.0304
C 21.949 25.5202 20.0392
C 16.9761 21.7823 19.5126
C 19.8393 19.3379 19.5896
C 26.2658 18.0949 19.4777
C 21.9778 18.1185 19.4904
C 30.5121 30.5008 19.6962
C 30.555 20.5878 19.5944
C 17.7137 20.5723 19.4656
C 24.0363 34.1893 19.8639
C 23.365 28.0015 20.0878
C 25.5191 26.7695 20.0603
C 15.4902 26.7142 19.6269
C 23.3782 25.5224 20.0544
C 31.9475 25.5487 19.5192
C 27.6195 32.9761 19.8759
C 24.0865 26.7648 20.0738
C 31.9694 23.0884 19.556
C 15.5168 24.2454 19.6029
C 29.8007 31.7361 19.7928
C 29.8334 19.3616 19.5156
C 15.4802 29.1856 19.6388
C 25.4647 34.1972 19.8541
C 31.9283 28.0204 19.4724
C 27.685 18.1178 19.4778
C 19.0245 32.9362 19.8648
C 16.8765 31.6765 19.7609
C 21.1735 34.1866 19.8002
C 24.1293 16.8841 19.331
C 14.7927 27.9438 19.5896
C 32.6475 24.3297 19.5011
C 14.8129 25.4714 19.5846
C 32.6354 26.7916 19.5085
C 25.5258 16.8787 19.3587
C 15.5519 21.7987 19.4484
C 17.5968 32.9198 19.8758
C 31.9794 20.6343 19.5309
C 19.746 34.1569 19.8231
C 31.941 30.4931 19.4657
H 19.3126 18.4115 19.2887
H 21.4297 17.1799 19.2991
C 32.6652 21.8477 19.4772
C 23.3055 35.4313 19.7845
H 17.1805 19.6324 19.2305
C 32.6263 29.2498 19.3977
C 14.8438 22.9877 19.5304
C 21.8889 35.4033 19.779
H 30.3871 18.4316 19.3054
C 14.7812 30.4204 19.5909
C 15.457 31.6266 19.6344
H 28.2359 17.1742 19.3386
C 28.3271 34.2517 19.7838
H 23.5746 15.9482 19.1677
H 13.7101 27.9436 19.3761
C 30.5161 32.9966 19.7199
C 26.1796 35.4465 19.7323
H 33.7381 24.3389 19.3424
H 15.0193 20.8415 19.3322
H 13.717 25.4628 19.4672
H 33.7121 26.7904 19.251
H 26.08 15.941 19.1968
H 32.5361 19.6879 19.4388
H 17.0684 33.8403 19.5581
H 19.2097 35.0896 19.5501
H 33.7598 21.8671 19.3631
H 33.6906 29.2638 19.0987
H 13.743 22.983 19.4666
H 13.6841 30.4101 19.4547
C 32.618 31.7431 19.4154
H 21.3343 36.3508 19.6697
C 24.0402 36.6554 19.7078
H 14.8819 32.5618 19.5437
C 27.5937 35.4393 19.727
C 29.7763 34.2366 19.8128
C 31.9312 32.9533 19.5709
C 25.4307 36.6624 19.6743
H 33.7067 31.7586 19.2425
H 23.4773 37.6008 19.6698
H 28.1304 36.4014 19.6559
H 30.3194 35.1949 19.8658
H 32.4719 33.9127 19.5213
H 25.9771 37.617 19.5993
H 15.3581 19.972 23.4703
H 21.6738 16.0161 23.6287
H 17.4593 18.6473 23.6292
H 19.5659 17.3247 23.6156
H 24.1686 15.9374 23.5964
H 14.2124 22.1766 23.5578
C 22.2575 16.9441 23.5221
C 15.9497 20.8974 23.4029
H 32.9039 20.5442 23.682
C 18.044 19.5624 23.4278
C 20.1461 18.2498 23.4632
C 23.6436 16.9014 23.4863
H 26.354 17.0986 23.5213
H 34.2542 22.6503 23.5313
C 15.302 22.1335 23.4429
H 34.5418 30.1422 23.4668
H 14.2911 24.6634 23.6288
H 14.5534 32.0694 23.7894
H 28.5187 18.2533 23.5849
H 30.6957 19.4032 23.7356
H 15.8782 34.1987 23.8393
H 14.3876 27.1265 23.6998
H 34.4983 27.6195 23.2792
H 22.4951 37.6777 23.8105
H 33.3384 32.3215 23.6527
H 14.4862 29.5936 23.8442
H 34.3699 25.1202 23.4047
C 17.3706 20.8105 23.3552
C 21.5649 18.1847 23.4764
H 24.9811 37.5736 23.8295
C 19.4595 19.4887 23.4006
H 20.295 36.5339 23.7995
C 32.4026 21.517 23.5576
C 33.1546 22.6875 23.4731
H 18.0929 35.3586 23.9677
C 25.838 18.0587 23.3428
C 33.4405 30.1649 23.4239
C 15.3855 24.6215 23.4906
H 31.251 33.617 23.7046
C 15.6535 32.0421 23.7167
C 24.4158 18.0964 23.4088
H 27.0825 36.2484 23.7451
H 29.1586 34.9262 23.8125
C 16.0291 23.358 23.4278
C 16.3889 33.2256 23.7231
C 28.024 19.21 23.3314
C 32.7792 31.3927 23.4945
C 30.1978 20.3629 23.5048
C 23.0124 36.7071 23.7327
C 15.4668 27.0929 23.4582
C 33.3906 27.6597 23.2621
C 15.5703 29.5506 23.6347
C 33.2696 25.1733 23.3622
C 24.3875 36.6479 23.7325
C 26.5967 19.2485 23.3602
C 30.9789 21.5485 23.4861
C 20.7997 35.5595 23.6897
C 28.7896 20.4072 23.4203
C 16.1168 25.8228 23.4825
C 32.5237 23.9602 23.3969
C 18.588 34.4211 23.6635
C 22.3238 19.4053 23.3204
C 32.7216 28.9467 23.3388
C 18.125 22.0368 23.2543
C 16.2983 30.7763 23.6121
C 24.0244 26.7818 23.0769
C 16.2114 28.3083 23.5193
C 20.221 20.7202 23.237
C 32.6412 26.4351 23.3201
C 24.7865 27.9916 23.0925
C 30.6735 32.6893 23.5401
C 22.594 26.8362 23.0859
C 24.6945 25.5167 23.0683
C 23.7449 19.3623 23.2973
C 17.8164 33.2184 23.6355
C 26.4959 35.3226 23.6148
C 22.2173 35.5183 23.6787
C 17.4667 23.301 23.3011
C 28.5785 34.0013 23.6435
C 31.3489 31.4534 23.5231
C 24.1146 29.2539 23.1234
C 26.2176 27.9345 23.097
C 21.8346 25.6239 23.0797
C 23.9328 24.3082 23.0684
C 20.0136 34.3846 23.6187
C 21.9246 28.1006 23.1164
C 26.1246 25.4614 23.0786
C 25.089 35.3963 23.6544
C 21.6485 20.6694 23.2075
C 19.5584 21.9835 23.1802
C 22.5019 24.3589 23.0688
C 22.6843 29.3116 23.139
C 26.8898 26.6705 23.0903
C 25.9253 20.5216 23.2373
C 29.2567 32.7648 23.5925
C 17.5583 25.7775 23.3132
C 28.1204 21.6774 23.2654
C 30.3145 22.8166 23.3319
C 27.1688 34.0873 23.5499
C 31.083 24.017 23.3181
C 24.4999 20.5761 23.2066
C 24.5989 23.043 23.0947
C 20.4049 25.6769 23.1086
C 18.2233 24.5186 23.2337
C 17.6495 28.2578 23.3453
C 26.7923 24.1967 23.0957
C 20.4945 28.1584 23.1524
C 26.979 29.144 23.1403
C 21.7392 23.1484 23.0859
C 26.6957 21.724 23.1826
C 24.8776 30.464 23.1683
C 17.7334 30.7328 23.463
C 31.2749 28.9842 23.2948
C 22.4031 21.8824 23.1251
C 20.3119 23.1964 23.1128
C 26.0283 22.9877 23.1045
C 23.8339 21.8359 23.1551
C 31.1833 26.5014 23.2628
C 19.7363 26.9432 23.1529
C 18.4857 31.9452 23.4757
C 19.6469 24.4653 23.1317
C 18.3097 26.9946 23.2463
C 28.8838 22.8756 23.2319
C 28.3204 26.6123 23.1193
C 26.3076 30.4063 23.1862
C 22.8898 34.2514 23.5424
C 22.0145 30.5762 23.2072
C 30.5965 30.2313 23.3652
C 18.4004 29.4677 23.3268
C 28.2222 24.1408 23.1402
C 30.4176 25.292 23.2449
C 20.6859 33.1037 23.461
C 19.827 29.4225 23.2257
C 30.5135 27.7666 23.2152
C 28.9864 25.3481 23.1463
C 24.3125 34.1881 23.51
C 28.4077 29.0867 23.1749
C 29.0849 27.8239 23.1578
C 20.584 30.637 23.2474
C 24.21 31.7227 23.2531
C 19.9203 31.897 23.3735
C 28.4917 31.5466 23.3986
C 22.7819 31.78 23.2807
C 26.3974 32.8722 23.3961
C 22.1146 33.0404 23.429
C 27.0674 31.613 23.3118
C 29.1637 30.2953 23.2973
C 24.9778 32.9291 23.3638
H 23.2342 15.9021 26.6635
H 14.7862 21.024 26.6893
H 25.7183 15.8405 26.6701
H 32.2204 19.4051 26.7787
H 33.5128 21.5335 26.7911
H 13.5908 23.2019 26.7672
H 15.0418 32.7511 26.8741
H 13.7503 30.6255 26.8604
H 19.0143 18.4682 26.5514
H 21.1296 17.1871 26.5945
H 16.8971 19.7509 26.5782
H 33.5746 26.4629 27.1854
H 19.3861 35.1412 26.8392
H 33.7321 31.4523 26.9937
H 23.7234 37.5224 27.0007
H 33.5655 24.0008 26.8238
H 17.2106 33.9429 26.8296
H 27.8839 17.0308 26.6509
H 30.053 18.2213 26.7041
H 33.6224 28.9868 27.2652
H 32.5467 33.6361 26.8744
H 21.56 36.3323 26.902
H 26.2102 37.473 26.9913
H 13.7019 28.1508 26.7972
H 13.6496 25.672 26.7685
C 23.8168 16.8357 26.5997
C 25.1829 16.8024 26.5994
C 15.3467 21.9726 26.6381
C 31.7032 20.3751 26.6993
C 14.6897 23.1694 26.6789
C 32.4147 21.5468 26.7072
C 14.8511 30.6122 26.7872
C 15.5612 31.7819 26.7947
H 30.4341 34.9163 26.835
H 28.3193 36.1938 26.8861
C 21.7018 18.1274 26.5249
C 19.5854 19.4094 26.4832
C 17.4686 20.6921 26.516
C 32.6364 31.4853 26.8749
C 24.2635 36.5669 26.9062
C 31.9831 32.6915 26.8114
C 27.3573 17.9965 26.5622
C 25.6296 36.5394 26.8993
C 29.5271 19.1863 26.6098
C 32.4709 24.0301 26.6938
C 32.515 26.5071 26.8602
C 17.7388 32.9792 26.7325
C 19.9137 34.1781 26.7336
C 14.7488 25.6519 26.6724
C 14.8022 28.1297 26.7054
C 32.5582 28.9987 26.9512
C 22.0891 35.3704 26.7994
C 23.094 18.0802 26.5159
C 25.9623 18.0113 26.5218
C 16.7824 21.9066 26.5286
C 30.2703 20.3737 26.5961
C 15.4041 24.4197 26.6143
C 31.7608 22.8237 26.6149
C 15.5093 29.3348 26.6878
C 20.9903 19.3559 26.4519
C 17.0006 31.7952 26.7038
C 18.8849 20.6309 26.4431
C 28.1178 19.1918 26.522
C 29.8646 33.9753 26.7451
C 27.7485 35.2542 26.7916
C 15.4561 26.8779 26.6229
C 24.0158 26.7136 26.1299
C 31.919 30.2459 26.7998
C 31.8206 25.2825 26.6569
C 23.4824 35.3589 26.7833
C 19.1589 32.9886 26.6609
C 31.8536 27.7621 26.8318
C 21.3206 34.1763 26.6918
C 30.5541 32.7585 26.7015
C 26.3531 35.3012 26.7766
C 23.3292 27.9642 26.165
C 25.4408 26.6821 26.137
C 23.2736 25.4935 26.1285
C 28.4545 34.0306 26.7009
C 24.0705 29.1834 26.2058
C 26.1824 27.9021 26.1744
C 23.8492 19.3028 26.4097
C 21.9035 27.9936 26.1953
C 26.1263 25.4286 26.1443
C 25.2655 19.2695 26.4173
C 17.5196 23.1424 26.4397
C 21.8478 25.5234 26.1549
C 23.9584 24.2419 26.1365
C 16.838 24.3837 26.4845
C 29.5944 21.6371 26.4698
C 30.3325 22.8502 26.4729
C 16.9464 29.3197 26.5693
C 17.683 30.5338 26.5723
C 25.4967 29.1522 26.2111
C 21.1616 26.7735 26.1909
C 25.3846 24.2098 26.1483
C 27.4315 20.4528 26.4003
C 21.7387 20.5837 26.3411
C 19.6289 21.8625 26.3397
C 30.5013 30.2818 26.5906
C 16.8896 26.8526 26.4911
C 24.1833 34.1086 26.6363
C 30.395 25.3225 26.4527
C 29.8202 31.5276 26.5732
C 19.8486 31.731 26.516
C 25.5991 34.0794 26.6381
C 30.4398 27.8025 26.5347
C 22.0151 32.9218 26.5409
C 21.2178 29.2415 26.2753
C 23.3833 30.4315 26.2892
C 27.6093 27.8687 26.2327
C 27.5519 25.3952 26.1996
C 21.1071 24.3031 26.1905
C 26.0089 20.4852 26.3418
C 23.2165 23.0223 26.1773
C 23.161 20.551 26.3194
C 18.9423 23.11 26.3339
C 28.1724 21.6686 26.3644
C 17.5729 25.6061 26.4146
C 17.6269 28.0731 26.4569
C 21.0514 21.8312 26.2811
C 21.9595 30.4595 26.3239
C 29.6584 24.1066 26.3732
C 28.293 26.6155 26.2506
C 21.7929 23.0529 26.2008
C 19.1066 30.5146 26.4687
C 27.7114 32.8039 26.5594
C 19.7376 26.8008 26.2626
C 29.7142 26.5799 26.3948
C 26.0678 22.9571 26.2027
C 21.272 31.7072 26.4497
C 26.2369 30.3716 26.296
C 29.7685 29.0548 26.4675
C 23.4382 32.8952 26.5099
C 23.9029 21.7704 26.2328
C 19.6823 24.3326 26.2594
C 19.7924 29.267 26.3476
C 28.2321 24.1419 26.2585
C 25.3254 21.7383 26.2473
C 18.9981 25.5796 26.2997
C 27.4912 22.9244 26.2605
C 19.0526 28.0487 26.3434
C 24.1259 31.6493 26.3788
C 28.3971 31.5605 26.4773
C 26.2884 32.8365 26.515
C 28.3461 29.0886 26.3229
C 25.5489 31.6188 26.3834
C 27.6601 30.3392 26.3486
Li 31.7608 21.992 21.4686
Li 16.7984 32.0472 21.8221
Li 16.2962 22.3551 21.4946
Li 24.8972 35.6066 21.5712
Li 31.6087 31.7242 21.4224
Li 29.1155 33.3596 21.6028
Li 21.486 34.5733 21.8283
Li 21.0491 18.7573 21.5033
Li 15.135 28.5118 21.6841
Li 15.9109 25.5594 21.4574
Li 26.9361 19.0386 21.3409
Li 33.0689 28.2135 21.2465
Li 33.3425 27.8131 25.3288
Li 32.0334 25.2228 21.5497
Li 18.4608 19.7411 21.3498
Li 24.5815 17.4875 21.3709
Li 29.5501 19.6453 21.586
Li 18.3969 34.2289 21.5362
Li 29.4519 33.9473 17.8594
Li 32.936 24.8674 25.1319
