641
592nano.out 0 0 0
C 24.0861 26.848 16.0046
C 24.046 26.7496 19.1567
C 24.8022 28.0863 16
C 25.4794 26.7454 19.1534
C 26.2338 25.6076 15.9976
C 26.1956 25.507 19.1531
C 26.9538 26.8486 15.9872
C 27.6318 25.5015 19.1821
C 24.0851 29.3211 15.9871
C 24.0447 29.2327 19.1895
C 24.7994 30.5593 15.9553
C 25.4823 29.2331 19.1791
C 26.236 28.0868 15.987
C 26.199 27.9819 19.146
C 26.9482 29.3237 15.9486
C 27.6345 27.9786 19.1872
C 24.0123 26.752 23.0589
C 24.0473 26.7012 26.2089
C 24.73 27.9932 23.0513
C 25.4785 26.7122 26.2209
C 26.1579 25.5041 23.0647
C 26.2014 25.4796 26.2598
C 26.8801 26.7438 23.0329
C 27.6301 25.488 26.3163
C 24.0158 29.242 23.0238
C 24.0271 29.1833 26.1382
C 24.7306 30.475 22.9744
C 25.4636 29.1947 26.1946
C 26.165 27.9849 23.0489
C 26.184 27.9568 26.225
C 26.8809 29.2259 23.059
C 27.6115 27.9662 26.2758
C 30.5252 25.5988 15.8089
C 30.4713 25.4897 19.4374
C 31.2478 26.835 15.8128
C 31.9075 25.4864 19.6046
C 30.4512 25.4957 22.8702
C 30.4711 25.5044 26.544
C 31.167 26.7364 22.7991
C 31.916 25.5133 26.6633
C 28.3814 26.8463 15.9548
C 28.3473 26.7378 19.2365
C 29.0963 28.0862 15.9214
C 29.7718 26.7343 19.3723
C 28.3086 26.7373 22.979
C 28.3326 26.7292 26.3279
C 29.0241 27.9741 22.9111
C 29.7608 26.738 26.4388
C 30.5111 23.1308 15.6474
C 30.4849 23.0142 19.3533
C 31.2325 24.3603 15.6669
C 31.9255 23.0211 19.4813
C 30.4422 23.0136 22.854
C 30.4947 23.028 26.6327
C 31.164 24.2459 22.8355
C 31.93 23.0418 26.731
C 28.3796 24.373 15.9119
C 28.346 24.2493 19.2084
C 29.0946 25.6022 15.9088
C 29.772 24.2547 19.327
C 28.3091 24.2595 23.0132
C 28.3504 24.2512 26.4021
C 29.0233 25.4979 22.9583
C 29.773 24.2626 26.5168
C 30.5189 30.5691 15.7732
C 30.4873 30.4533 19.4946
C 31.244 31.8355 15.6754
C 31.9258 30.4402 19.6212
C 30.4525 30.4477 22.7522
C 30.4598 30.4554 26.4134
C 31.1676 31.6861 22.7312
C 31.9121 30.4594 26.4515
C 24.0731 34.2714 15.8793
C 24.0547 34.1787 19.3566
C 24.8022 35.5244 15.8559
C 25.4701 34.1808 19.4885
C 26.2137 33.0271 15.7809
C 26.1941 32.9406 19.4397
C 26.929 34.2837 15.6625
C 27.6255 32.9466 19.4658
C 24.0411 34.1855 22.8585
C 23.9864 34.1241 26.5946
C 24.7769 35.4304 22.7666
C 25.4132 34.1433 26.5678
C 26.169 32.9276 22.7746
C 26.1448 32.9137 26.4295
C 26.8979 34.1722 22.647
C 27.5762 32.9277 26.4394
C 28.3619 31.7944 15.7505
C 28.3452 31.7078 19.3983
C 29.0782 33.0473 15.6457
C 29.7821 31.6967 19.4766
C 28.3127 31.6797 22.7569
C 28.3049 31.6903 26.3822
C 29.0401 32.9224 22.6246
C 29.7375 31.6945 26.437
C 30.5355 28.0834 15.853
C 30.4729 27.9727 19.4727
C 31.2487 29.3211 15.7934
C 31.9119 27.9708 19.6447
C 30.4493 27.9731 22.8003
C 30.4607 27.9817 26.4736
C 31.1634 29.2187 22.7303
C 31.9046 27.9922 26.6035
C 24.0771 31.7964 15.9264
C 24.0572 31.7042 19.3041
C 24.789 33.0298 15.8653
C 25.4815 31.7081 19.3297
C 26.2244 30.5599 15.923
C 26.1973 30.4717 19.2433
C 26.9367 31.7991 15.8215
C 27.6367 30.4724 19.2725
C 24.0173 31.7129 22.9307
C 24.0112 31.6702 26.2656
C 24.7452 32.9438 22.8609
C 25.4374 31.6733 26.2999
C 26.1656 30.4672 22.9704
C 26.1679 30.4371 26.2434
C 26.8844 31.6972 22.8373
C 27.5974 30.445 26.2941
C 28.3818 29.3207 15.9115
C 28.3529 29.2275 19.2545
C 29.0915 30.5667 15.8215
C 29.775 29.2154 19.3979
C 28.3155 29.2142 22.9397
C 28.318 29.2119 26.3057
C 29.0249 30.4497 22.8136
C 29.7478 29.2153 26.3905
H 14.4226 21.8913 15.3415
H 14.9265 20.8662 19.6303
H 14.3411 21.8399 22.6426
H 15.0154 20.7236 26.8521
H 22.1382 16.014 15.5996
C 22.6901 16.9586 15.6242
H 23.4941 15.9086 19.4328
H 22.0279 15.9241 22.7158
C 22.5778 16.8701 22.751
H 23.5962 15.8627 26.2977
H 15.6704 19.7072 15.5442
C 16.2198 20.6508 15.5808
H 17.089 19.6125 19.3725
H 17.8515 18.4451 15.6407
C 18.3854 19.3995 15.658
H 15.5506 19.7027 23.0438
C 16.1128 20.6373 22.9584
H 17.1868 19.5178 26.9726
H 17.712 18.4147 23.3656
C 18.2608 19.3478 23.21
H 20 17.2348 15.5409
C 20.5381 18.1891 15.5559
H 21.3582 17.149 19.5694
H 19.8801 17.146 22.9525
C 20.4158 18.099 22.9033
H 21.4416 17.0877 26.6567
H 24.6181 16.0214 15.7936
H 24.5113 15.9281 22.7837
H 13.6562 25.4936 19.1574
C 14.7491 25.502 19.1928
H 13.68 25.3413 26.5078
C 14.7738 25.3592 26.4974
H 13.6743 23.0142 19.3977
H 14.4364 24.4095 15.3701
C 14.7677 23.018 19.3975
H 13.7327 22.8445 26.5997
H 14.3531 24.3265 22.5592
C 14.8264 22.8645 26.6101
H 13.6698 30.5114 19.2193
H 14.4488 31.7815 15.2744
C 14.763 30.5002 19.2347
H 13.6254 30.3116 26.34
H 14.3721 31.7021 23.3711
C 14.7185 30.3179 26.3668
H 13.6441 27.998 19.1811
H 14.4564 29.2963 15.2706
C 14.7365 27.9965 19.1974
H 13.6475 27.8202 26.4465
H 14.3608 29.2175 23.1946
C 14.7423 27.8319 26.4384
C 15.5094 21.8929 15.4508
C 15.4717 21.8106 19.5449
C 16.1941 23.1435 15.4884
C 16.8817 21.7806 19.5269
C 17.6369 20.6053 15.649
C 17.6283 20.566 19.4682
C 18.3673 21.8825 15.6924
C 19.0431 20.5572 19.5057
C 15.5277 24.3951 15.4517
C 15.4384 24.2613 19.325
C 16.2335 25.6153 15.4015
C 16.8898 24.2631 19.3667
C 17.6495 23.1339 15.6545
C 17.606 23.0296 19.4429
C 18.3671 24.3707 15.6998
C 19.0334 23.0363 19.4175
C 15.4297 21.8387 22.7311
C 15.5447 21.6766 26.7669
C 16.1187 23.0779 22.6624
C 16.9661 21.6664 26.7867
C 17.5224 20.5796 23.0279
C 17.7176 20.4707 26.8855
C 18.2578 21.8234 22.913
C 19.123 20.4717 26.8831
C 15.4452 24.3204 22.6134
C 15.4779 24.1266 26.543
C 16.1361 25.5441 22.645
C 16.9276 24.1417 26.5131
C 17.5597 23.0611 22.7831
C 17.6623 22.9241 26.6168
C 18.2837 24.2954 22.8002
C 19.0931 22.9447 26.5602
C 21.9454 20.6599 15.7033
C 21.9104 20.5581 19.4897
C 22.6544 21.8985 15.842
C 23.3408 20.5521 19.4295
C 21.8462 20.5654 22.897
C 21.977 20.5036 26.5818
C 22.5625 21.7971 22.9665
C 23.3924 20.5098 26.4312
C 19.7977 21.8861 15.7314
C 19.762 21.8068 19.4713
C 20.5098 23.1333 15.83
C 21.1851 21.7899 19.4297
C 19.6962 21.8119 22.9542
C 19.8273 21.7291 26.6857
C 20.4146 23.0476 22.9638
C 21.2467 21.7293 26.547
C 21.9479 18.1721 15.5676
C 21.9081 18.0939 19.5474
C 22.6676 19.4224 15.6106
C 23.3245 18.0621 19.4648
C 21.8399 18.0777 22.7803
C 21.985 18.0364 26.6081
C 22.5655 19.3223 22.8211
C 23.3923 18.0165 26.421
C 19.8052 19.384 15.5942
C 19.7724 19.3381 19.465
C 20.5249 20.6485 15.6667
C 21.1935 19.3004 19.5368
C 19.6905 19.2999 23.0266
C 19.8595 19.268 26.8051
C 20.4144 20.5628 22.9609
C 21.2703 19.2429 26.7486
C 21.9404 25.6092 15.9548
C 21.8861 25.5114 19.2223
C 22.6564 26.8483 15.9849
C 23.328 25.5111 19.1849
C 21.8509 25.5212 23.0358
C 21.9147 25.4419 26.2546
C 22.5719 26.7576 23.0371
C 23.3433 25.4567 26.2364
C 15.5476 29.305 15.3561
C 15.4243 29.2628 19.2352
C 16.2249 30.5492 15.3857
C 16.8905 29.2549 19.263
C 17.6805 28.0849 15.5484
C 17.6001 28.008 19.2529
C 18.3824 29.3222 15.6389
C 19.0371 28.0038 19.2781
C 15.4528 29.2226 23.1257
C 15.4088 29.0666 26.3653
C 16.1338 30.4615 23.146
C 16.8635 29.093 26.3492
C 17.5835 28.002 22.9578
C 17.5943 27.863 26.3471
C 18.2913 29.2381 22.9513
C 19.0257 27.8851 26.2914
C 19.8026 26.8498 15.8277
C 19.7483 26.7611 19.2802
C 20.5125 28.0847 15.8811
C 21.169 26.7587 19.241
C 19.7186 26.7659 22.9081
C 19.756 26.6556 26.2755
C 20.4305 28.0029 22.9373
C 21.185 26.673 26.2348
C 21.9365 23.1353 15.8896
C 21.8978 23.0255 19.3159
C 22.6518 24.372 15.9585
C 23.3313 23.0227 19.2678
C 21.8453 23.0394 23.0236
C 21.9427 22.9704 26.3823
C 22.5626 24.2722 23.1126
C 23.3681 22.982 26.3187
C 15.5538 26.8483 15.4172
C 15.418 26.7441 19.211
C 16.2411 28.0879 15.3557
C 16.8825 26.7495 19.2394
C 17.6736 25.6107 15.5783
C 17.6019 25.5092 19.3179
C 18.3797 26.8493 15.6623
C 19.033 25.5127 19.319
C 15.4521 26.7709 22.8536
C 15.438 26.6098 26.481
C 16.1376 27.9982 23.0621
C 16.8946 26.6268 26.4223
C 17.5817 25.5332 22.7558
C 17.6263 25.3961 26.423
C 18.2887 26.7676 22.8645
C 19.0561 25.411 26.3472
C 19.7984 24.3687 15.8249
C 19.7376 24.2791 19.3443
C 20.5151 25.6092 15.8791
C 21.1751 24.274 19.2837
C 19.7082 24.2863 22.9116
C 19.7846 24.1854 26.3941
C 20.4258 25.5249 22.945
C 21.2145 24.1992 26.3338
C 24.064 16.9634 15.7374
C 24.0478 16.8475 19.3654
C 24.7965 18.1778 15.7979
C 25.4154 16.8405 19.1853
H 25.9585 15.8935 19.1175
H 26.7488 17.2542 15.8842
C 24.083 19.4226 15.7618
C 24.0436 19.3047 19.3854
C 24.7838 20.6621 15.8739
C 25.4538 19.2964 19.2058
C 26.2022 18.2016 15.8634
C 26.158 18.0451 19.107
C 26.9177 19.3959 15.8539
C 27.5844 18.057 19.0664
C 23.9588 16.8722 22.7938
C 24.1405 16.811 26.3179
C 24.6947 18.078 22.8753
C 25.541 16.817 26.2799
H 26.0906 15.8726 26.2361
H 26.6519 17.1438 22.9654
C 23.9855 19.3206 22.8784
C 24.1163 19.2728 26.3829
C 24.6994 20.5575 22.9531
C 25.5414 19.2815 26.3514
C 26.1092 18.0947 22.9531
C 26.2854 18.034 26.3476
C 26.8325 19.2928 23.0215
C 27.6851 18.0657 26.4835
H 28.1121 17.0983 19.0286
H 28.2394 17.1222 26.4932
C 30.4947 20.6639 15.6059
C 30.5141 20.5118 19.2339
C 31.2281 21.8885 15.4788
C 31.9237 20.5608 19.3315
C 30.4141 20.54 22.8313
C 30.5217 20.5406 26.7417
C 31.1573 21.7599 22.7764
C 31.9396 20.5914 26.7617
C 24.0841 24.374 15.9899
C 24.0435 24.2646 19.1994
C 24.8016 25.6094 16.0052
C 25.4816 24.257 19.1743
C 26.2198 23.1406 15.9661
C 26.1919 23.0144 19.1836
C 26.9429 24.3735 15.9739
C 27.6304 23.0076 19.1843
C 24.0044 24.273 23.0831
C 24.0695 24.2247 26.2628
C 24.7216 25.5071 23.0666
C 25.4984 24.235 26.2717
C 26.1392 23.0218 23.0461
C 26.2217 23.0025 26.3284
C 26.8688 24.2652 23.1003
C 27.6465 23.0112 26.4079
C 28.3621 21.9036 15.796
C 28.3416 21.7646 19.197
C 29.0879 23.1365 15.7971
C 29.7793 21.7722 19.2424
C 28.2833 21.785 22.9597
C 28.3635 21.7767 26.5346
C 29.0138 23.0186 22.9475
C 29.7966 21.79 26.648
H 30.3087 18.318 19.2583
H 31.0242 19.7116 15.4577
H 30.3624 18.3781 26.7312
H 30.9479 19.5864 22.7698
C 24.0737 21.9003 15.9057
C 24.0552 21.7826 19.3136
C 24.7946 23.137 15.9737
C 25.4718 21.7755 19.2398
C 26.2057 20.6588 15.9035
C 26.1816 20.5334 19.201
C 26.9318 21.8976 15.912
C 27.614 20.5208 19.1798
C 23.9878 21.7938 22.9818
C 24.0951 21.7489 26.3433
C 24.713 23.0282 23.0411
C 25.5204 21.7581 26.3392
C 26.123 20.5534 22.9897
C 26.2446 20.5265 26.3923
C 26.8519 21.78 22.9962
C 27.6617 20.5317 26.5168
C 28.3404 19.4302 15.6686
C 28.3306 19.248 19.1393
C 29.0799 20.6505 15.6607
C 29.7649 19.2671 19.2578
C 28.2565 19.3176 22.8819
C 28.3927 19.2741 26.6013
C 28.9982 20.5317 22.9042
C 29.8049 19.3189 26.7083
H 32.4786 19.6168 19.3222
H 33.173 20.9657 15.3305
H 32.4932 19.6483 26.7841
H 33.1047 20.8396 22.6312
H 14.9346 32.6737 19.2442
H 14.8636 32.4805 26.43
C 15.5408 31.7917 15.3305
C 15.4745 31.7217 19.2569
C 16.2281 33.0093 15.4053
C 16.9004 31.7474 19.2974
C 17.6654 30.5564 15.5309
C 17.6173 30.4901 19.3047
C 18.3707 31.7956 15.5772
C 19.0474 30.4855 19.3224
H 15.6773 33.9537 15.3889
H 17.1064 33.9133 19.3677
C 17.6493 33.0553 15.491
C 17.647 32.9617 19.3244
C 18.3775 34.2706 15.5467
C 19.0647 32.9732 19.4082
C 15.4566 31.7082 23.2371
C 15.4157 31.5365 26.4181
C 16.1451 32.9248 23.1228
C 16.8305 31.5845 26.4706
C 17.5748 30.4702 23.0054
C 17.5674 30.336 26.386
C 18.281 31.709 22.9074
C 18.9963 30.3557 26.3876
H 15.5996 33.8711 23.1814
H 17.0032 33.7468 26.6614
C 17.5518 32.9696 22.9425
C 17.556 32.8038 26.6111
C 18.2902 34.1943 22.9115
C 18.9528 32.8341 26.673
C 21.939 30.559 15.9148
C 21.9077 30.472 19.2721
C 22.6507 31.7968 15.9057
C 23.3351 30.4703 19.253
C 21.8673 30.4833 22.94
C 21.8604 30.4035 26.2033
C 22.5893 31.7213 22.9411
C 23.2954 30.4228 26.1135
C 19.8052 31.799 15.7013
C 19.7736 31.7118 19.3393
C 20.5188 33.0392 15.7021
C 21.1985 31.7106 19.288
C 19.7186 31.7177 22.8763
C 19.704 31.6013 26.4859
C 20.4363 32.9639 22.9179
C 21.1296 31.6376 26.3627
C 21.9414 28.0852 15.9614
C 21.8915 27.9969 19.209
C 22.6546 29.3218 15.9694
C 23.3282 27.9943 19.1267
C 21.8558 28.0007 22.9958
C 21.8856 27.9202 26.1979
C 22.576 29.2505 22.9939
C 23.3208 27.9339 26.1788
C 19.8013 29.3251 15.8007
C 19.7533 29.2357 19.2952
C 20.5137 30.5603 15.8246
C 21.1849 29.2348 19.2674
C 19.7206 29.2464 22.9143
C 19.7235 29.13 26.2894
C 20.4322 30.4804 22.9069
C 21.1577 29.1518 26.2217
C 21.9104 35.527 15.8437
C 21.9349 35.3968 19.1655
C 22.6587 36.7407 15.9018
C 23.3417 35.4174 19.2906
C 21.8932 35.4699 22.9209
C 21.8318 35.3288 26.7474
C 22.6491 36.6646 22.8958
C 23.2628 35.359 26.7889
H 19.9626 36.4523 15.6889
H 21.3897 36.3447 19.1222
H 19.9143 36.3936 22.6756
H 21.279 36.2456 26.988
C 21.9351 33.0333 15.8311
C 21.9242 32.9396 19.2284
C 22.6458 34.2737 15.8676
C 23.3449 32.9405 19.2935
C 21.8782 32.9614 22.9558
C 21.8487 32.8746 26.4421
C 22.6123 34.2001 22.9484
C 23.2825 32.8912 26.4238
H 17.828 35.216 15.5277
H 17.7373 35.1381 22.9194
C 19.7931 34.3019 15.6152
C 19.7918 34.1766 19.2844
C 20.5102 35.5045 15.7063
C 21.2118 34.1968 19.1302
C 19.6989 34.2274 22.8716
C 19.6871 34.0769 26.6605
C 20.4465 35.449 22.8132
C 21.1255 34.1115 26.6413
C 32.6369 21.9169 15.4113
C 32.6108 21.777 19.466
C 33.3458 23.1198 15.4477
H 33.6987 21.7776 19.5657
C 32.6778 24.3576 15.5555
C 32.5977 24.2596 19.5783
C 33.3758 25.5943 15.6267
H 33.681 24.259 19.7154
H 34.4375 23.1125 15.3909
C 32.5667 21.7893 22.6888
C 32.6203 21.8011 26.7568
C 33.2817 22.9964 22.7079
H 33.7149 21.8164 26.785
C 32.6158 24.2504 22.754
C 32.6119 24.2874 26.6246
C 33.3049 25.4913 22.7596
H 33.7056 24.298 26.6904
H 34.3736 22.9878 22.6502
C 32.7208 29.3196 15.7343
C 32.603 29.1937 19.6488
C 33.3899 30.5678 15.6854
H 33.6902 29.1856 19.7753
H 34.4909 28.06 15.7198
C 32.6037 29.2148 22.6969
C 32.5945 29.2176 26.5302
C 33.2799 30.4629 22.745
H 33.6885 29.2155 26.5661
H 34.3917 27.9837 22.7185
C 32.7034 26.831 15.7054
C 32.5937 26.7252 19.5715
C 33.3972 28.067 15.7494
H 34.468 25.5895 15.5679
C 32.6249 26.7363 22.732
C 32.5934 26.7544 26.5727
C 33.2975 27.9761 22.7257
H 34.3976 25.487 22.7187
H 22.1127 37.6881 15.9177
H 23.5213 37.5718 19.3186
H 22.1149 37.619 22.8991
H 23.4288 37.505 26.9464
C 24.0606 36.7363 15.9075
C 24.0742 36.6294 19.3745
H 24.6103 37.6813 15.9329
C 25.444 36.6356 19.5185
C 26.2184 35.4934 15.7477
C 26.189 35.4267 19.575
H 26.7696 36.4386 15.7258
C 27.6089 35.4092 19.5865
H 25.9897 37.5827 19.5742
C 24.0504 36.65 22.8048
C 23.9878 36.5693 26.8477
H 24.6045 37.5902 22.7667
C 25.3812 36.5938 26.7748
C 26.1865 35.3881 22.693
C 26.1301 35.3988 26.6746
H 26.7387 36.3273 22.5983
C 27.5496 35.391 26.618
H 25.9158 37.5467 26.817
H 30.3203 35.1153 19.6108
H 30.2497 35.1295 26.5913
H 28.1469 36.3606 19.6267
H 28.0828 36.3437 26.6824
C 30.4915 33.0424 15.7513
C 30.5001 32.9532 19.5716
H 31.0255 33.9977 15.7132
C 31.9201 32.8999 19.6481
C 30.4455 32.8966 22.6751
C 30.4607 32.9668 26.5165
H 30.9933 33.8424 22.6171
C 31.8806 32.9294 26.5041
C 28.3488 34.253 15.705
C 28.3514 34.207 19.5633
C 29.7699 34.173 19.5525
C 28.3098 34.1402 22.6987
C 28.2956 34.1927 26.5592
C 29.711 34.1791 26.5436
C 32.667 31.8038 15.6699
C 32.6061 31.6833 19.6997
H 33.21 32.7512 15.629
H 33.6941 31.6719 19.7984
H 34.4821 30.5766 15.6706
H 32.4715 33.8411 19.7157
C 32.5868 31.6521 22.7601
C 32.5876 31.7083 26.4628
H 33.1253 32.604 22.7765
H 33.6804 31.7105 26.4519
H 34.3749 30.4578 22.7584
H 32.4253 33.8772 26.5216
H 33.6871 26.761 26.6351
H 19.3176 18.3189 26.8728
H 19.1447 35.0021 26.8943
H 14.3578 26.7679 22.8681
H 28.8571 35.0828 22.5998
H 33.6807 26.721 19.7059
H 28.8032 18.3683 22.8771
H 19.2242 18.3897 19.3666
H 19.2491 35.1275 19.298
H 28.8953 35.2018 15.6707
H 14.462 26.8484 15.3311
H 28.8661 18.4715 15.5399
Li 17.0028 21.7982 13.8577
Li 16.2307 25.3799 17.4462
Li 31.2226 31.6636 28.2061
Li 19.1285 20.5011 17.4834
Li 31.9986 30.5554 13.9907
Li 22.5005 19.1937 17.6586
Li 16.0772 30.27 28.1397
Li 18.9039 32.8992 24.6824
Li 24.8916 17.958 28.0934
Li 16.0626 25.4081 24.6667
Li 27.4775 20.6989 14.0472
Li 18.931 20.6439 24.8443
Li 23.3526 35.5682 14.131
Li 19.027 33.1997 17.398
Li 16.1078 28.131 17.3976
Li 21.3607 19.1276 24.6994
Li 29.2679 20.4131 24.8548
Li 32.0585 25.5152 24.6188
Li 23.5865 35.5735 24.713
Li 26.7994 34.4131 24.7056
Li 26.7935 34.4284 17.7068
Li 21.2559 34.2305 21.1272
Li 31.9858 28.2057 24.5618
Li 26.7963 19.0724 20.975
Li 16.2942 22.377 24.7562
Li 32.158 25.3919 17.543
Li 29.1631 33.1052 17.6862
Li 32.1168 28.1322 17.6152
Li 32.0253 22.7861 24.6332
Li 16.0775 28.0048 21.0384
Li 29.196 33.0575 24.6568
Li 29.157 20.4464 20.9594
Li 16.6489 31.7656 17.2605
Li 23.3172 27.9843 21.202
Li 31.452 21.9005 17.5324
Li 26.9012 24.2819 21.015
Li 18.4056 19.4118 21.1581
Li 22.6512 24.3188 21.0611
Li 31.5244 31.684 17.7443
Li 26.8975 29.1556 21.0141
Li 20.5916 32.9345 28.4011
Li 20.6546 35.0579 24.8344
Li 16.194 22.4226 17.538
Li 23.1476 30.0457 28.1771
Li 16.5322 31.6844 21.286
Li 21.7804 31.3747 30.3293
Li 29.7472 19.487 17.2712
Li 20.37 32.8037 30.4228
Li 32.6714 31.2165 24.4705
