633
592nano.out 0 0 0
C 24.0937 26.8432 16.0787
C 24.0444 26.7619 19.1172
C 24.807 28.0806 16.0814
C 25.474 26.7592 19.1626
C 26.2406 25.608 16.0895
C 26.1893 25.5175 19.1399
C 26.9597 26.8469 16.0871
C 27.6255 25.5154 19.1873
C 24.0869 29.3148 16.0607
C 24.0474 29.2361 19.2208
C 24.7998 30.5531 16.0273
C 25.4799 29.2293 19.2934
C 26.24 28.0825 16.0835
C 26.1935 27.991 19.2611
C 26.9518 29.3177 16.0442
C 27.6217 27.9876 19.3415
C 24.0259 26.7373 23.0274
C 24.0473 26.6966 26.1122
C 24.7487 27.9776 22.9882
C 25.4764 26.7079 26.1238
C 26.1664 25.4894 23.0584
C 26.1969 25.4745 26.1638
C 26.8861 26.7301 22.9519
C 27.6245 25.4836 26.2186
C 24.0358 29.2258 22.9644
C 24.03 29.1714 26.1332
C 24.7511 30.4585 22.8904
C 25.4595 29.186 26.1295
C 26.1769 27.9712 22.9243
C 26.1821 27.952 26.1239
C 26.8882 29.2056 22.8517
C 27.6084 27.9634 26.1674
C 30.5272 25.6002 15.8817
C 30.4585 25.4904 19.4994
C 31.2498 26.8326 15.8664
C 31.8974 25.4813 19.639
C 30.461 25.4944 22.8114
C 30.4613 25.5008 26.4649
C 31.1757 26.7369 22.7473
C 31.9045 25.5098 26.608
C 28.3883 26.8478 16.0544
C 28.3366 26.7506 19.3217
C 29.1035 28.0868 16.0154
C 29.7594 26.7395 19.4566
C 28.315 26.73 22.8844
C 28.3276 26.7266 26.225
C 29.0264 27.9675 22.8044
C 29.7535 26.7351 26.3474
C 30.5125 23.1278 15.7359
C 30.4627 23.0076 19.4081
C 31.2304 24.3564 15.7314
C 31.8988 23.0078 19.5407
C 30.455 23.0115 22.7945
C 30.4822 23.0209 26.5544
C 31.175 24.2454 22.7866
C 31.917 23.0354 26.6614
C 28.3858 24.3714 16.0136
C 28.3339 24.2597 19.2549
C 29.099 25.6033 15.9996
C 29.7554 24.2571 19.3947
C 28.3194 24.2509 22.9837
C 28.3422 24.2474 26.3102
C 29.0322 25.4914 22.8947
C 29.763 24.2578 26.432
C 30.5281 30.5661 15.8286
C 30.4829 30.4532 19.5862
C 31.2448 31.8361 15.7208
C 31.9258 30.4387 19.6741
C 30.4585 30.4412 22.7182
C 30.4496 30.4619 26.3034
C 31.1744 31.6763 22.718
C 31.9018 30.4582 26.3378
C 24.0666 34.2649 15.9158
C 24.0461 34.1762 19.3552
C 24.796 35.517 15.8908
C 25.46 34.1771 19.4987
C 26.2102 33.0181 15.8335
C 26.185 32.9343 19.4958
C 26.9243 34.2754 15.7026
C 27.6135 32.9378 19.5506
C 24.045 34.1709 22.8169
C 23.9863 34.1003 26.5987
C 24.7735 35.4143 22.7608
C 25.4076 34.1266 26.5563
C 26.1779 32.9174 22.73
C 26.1432 32.9005 26.3968
C 26.9011 34.1694 22.632
C 27.5713 32.922 26.4004
C 28.3639 31.7867 15.8252
C 28.3342 31.695 19.5397
C 29.0753 33.0419 15.7091
C 29.7752 31.6918 19.5912
C 28.3198 31.6665 22.7014
C 28.2978 31.6915 26.295
C 29.0441 32.9111 22.6132
C 29.7312 31.7007 26.3395
C 30.5409 28.0838 15.9166
C 30.4632 27.9768 19.5596
C 31.2557 29.3191 15.8332
C 31.907 27.9694 19.6717
C 30.4561 27.9704 22.7364
C 30.4521 27.9828 26.386
C 31.172 29.2152 22.6901
C 31.8949 27.9916 26.5367
C 24.0754 31.7894 15.9841
C 24.0507 31.7017 19.3459
C 24.7855 33.0222 15.9126
C 25.4756 31.6975 19.4079
C 26.2258 30.5534 16.0065
C 26.1928 30.4623 19.39
C 26.936 31.7915 15.8959
C 27.6211 30.459 19.4536
C 24.0383 31.6944 22.8686
C 24.0116 31.6407 26.294
C 24.7571 32.9264 22.8049
C 25.4366 31.6574 26.2706
C 26.1787 30.4476 22.8407
C 26.1634 30.4299 26.1793
C 26.8926 31.6807 22.7592
C 27.5947 30.445 26.1993
C 28.3863 29.3193 16.0079
C 28.3337 29.2233 19.441
C 29.0979 30.5629 15.9008
C 29.7611 29.2162 19.5238
C 28.3145 29.2016 22.7963
C 28.3131 29.2104 26.1978
C 29.0278 30.4382 22.7372
C 29.7403 29.2149 26.2872
H 14.4471 21.8801 15.6037
H 14.9165 20.8914 19.4214
H 14.3557 21.8369 22.5542
H 15.0017 20.7514 26.8086
H 22.1695 16.0165 15.619
C 22.7214 16.961 15.642
H 23.4837 15.9198 19.463
H 22.047 15.9102 22.7058
C 22.5973 16.8561 22.7277
H 23.5749 15.8628 26.2783
H 15.6902 19.711 15.5922
C 16.2402 20.6553 15.6241
H 17.0633 19.6518 19.2978
H 17.8658 18.4469 15.6135
C 18.4065 19.3967 15.6432
H 15.5626 19.6944 22.9273
C 16.1267 20.6302 22.8608
H 17.1702 19.5372 26.8935
H 17.7249 18.407 23.2663
C 18.2769 19.3393 23.1116
H 20.0315 17.2347 15.5416
C 20.567 18.1888 15.5666
H 21.3411 17.1581 19.5773
H 19.8975 17.136 22.8651
C 20.4341 18.0886 22.8149
H 21.4226 17.0952 26.5878
H 24.6411 16.0188 15.8168
H 24.5258 15.9119 22.8262
H 13.6586 25.4994 19.2056
C 14.7505 25.513 19.2654
H 13.6816 25.3768 26.5286
C 14.7748 25.3892 26.5079
H 13.667 23.0386 19.3756
H 14.4495 24.3752 15.4992
C 14.7613 23.036 19.4059
H 13.7238 22.8783 26.5905
H 14.3637 24.3255 22.5661
C 14.8175 22.8942 26.5938
H 13.682 30.5284 19.3664
H 14.4485 31.7639 15.3757
C 14.7755 30.5152 19.3815
H 13.6572 30.3484 26.2712
H 14.4016 31.7078 22.9935
C 14.7506 30.3516 26.3013
H 13.6461 28.0163 19.1881
H 14.4591 29.281 15.3557
C 14.7378 28.0098 19.2168
H 13.6618 27.8596 26.4315
H 14.4005 29.2453 23.1431
C 14.7563 27.8634 26.4192
C 15.5397 21.8778 15.6337
C 15.458 21.8427 19.4307
C 16.2174 23.125 15.6549
C 16.8688 21.815 19.4602
C 17.6624 20.6081 15.6521
C 17.6064 20.6012 19.4284
C 18.3849 21.8794 15.7259
C 19.0194 20.5771 19.5219
C 15.5421 24.3695 15.5538
C 15.4395 24.2779 19.4101
C 16.237 25.5925 15.4907
C 16.8818 24.2756 19.473
C 17.6709 23.1178 15.729
C 17.5932 23.0472 19.4981
C 18.3879 24.3598 15.7649
C 19.0265 23.0515 19.5125
C 15.4438 21.8336 22.6559
C 15.5331 21.7041 26.7299
C 16.1335 23.0752 22.615
C 16.9553 21.6884 26.7298
C 17.5375 20.5728 22.9316
C 17.7035 20.489 26.8072
C 18.2729 21.8161 22.8268
C 19.107 20.4854 26.7926
C 15.4569 24.3187 22.6174
C 15.4733 24.1576 26.5371
C 16.1467 25.5479 22.649
C 16.9229 24.1642 26.4789
C 17.5747 23.0544 22.7202
C 17.653 22.9444 26.5602
C 18.2978 24.291 22.7469
C 19.0844 22.9581 26.4809
C 21.9659 20.656 15.7443
C 21.8864 20.5687 19.524
C 22.6747 21.8942 15.9006
C 23.3119 20.5649 19.4425
C 21.8621 20.553 22.8219
C 21.963 20.5102 26.4919
C 22.5749 21.7858 22.9242
C 23.3785 20.5129 26.3456
C 19.8223 21.8817 15.7784
C 19.7445 21.8246 19.5403
C 20.5275 23.1228 15.8927
C 21.1714 21.8082 19.4956
C 19.7131 21.8028 22.8666
C 19.8141 21.7414 26.595
C 20.4308 23.0369 22.9001
C 21.2347 21.7366 26.4502
C 21.9739 18.1761 15.586
C 21.8863 18.1057 19.561
C 22.695 19.4216 15.6393
C 23.3037 18.0771 19.4825
C 21.8592 18.0658 22.7155
C 21.9673 18.0432 26.5367
C 22.5884 19.31 22.7549
C 23.3748 18.0199 26.3616
C 19.8264 19.3817 15.6036
C 19.7447 19.3518 19.4736
C 20.5462 20.6432 15.7005
C 21.1654 19.3096 19.5581
C 19.7044 19.2891 22.9176
C 19.8412 19.279 26.7008
C 20.4296 20.5528 22.8609
C 21.2523 19.2514 26.6606
C 21.9511 25.6024 16.0222
C 21.8826 25.5199 19.2243
C 22.6638 26.8409 16.0516
C 23.3189 25.5189 19.1162
C 21.8631 25.5056 22.9981
C 21.9122 25.4432 26.1541
C 22.5876 26.7425 22.9908
C 23.3409 25.4545 26.1361
C 15.5497 29.2886 15.4449
C 15.4348 29.269 19.3031
C 16.2245 30.5305 15.5017
C 16.89 29.2641 19.3512
C 17.6844 28.0709 15.6227
C 17.6047 28.0084 19.3335
C 18.3829 29.3069 15.7253
C 19.0342 28.0063 19.3562
C 15.4935 29.2408 23.0779
C 15.4322 29.0955 26.3259
C 16.1788 30.4715 22.9897
C 16.8828 29.1164 26.3031
C 17.6094 28.0044 22.9257
C 17.6065 27.8811 26.2964
C 18.3205 29.2345 22.9034
C 19.0357 27.8939 26.2224
C 19.8101 26.8368 15.8948
C 19.7474 26.7648 19.3543
C 20.5178 28.0747 15.9476
C 21.1669 26.7646 19.2651
C 19.7363 26.7564 22.8474
C 19.7596 26.6636 26.1934
C 20.4509 27.9924 22.8763
C 21.1883 26.6747 26.1426
C 21.956 23.1277 15.9571
C 21.8865 23.0426 19.3799
C 22.6666 24.3646 16.0274
C 23.3175 23.0387 19.2906
C 21.8576 23.0243 22.9822
C 21.9339 22.9745 26.2824
C 22.5717 24.2547 23.0911
C 23.3595 22.9823 26.2218
C 15.5601 26.8304 15.4797
C 15.4174 26.7521 19.2616
C 16.2437 28.0678 15.4277
C 16.8828 26.7555 19.3264
C 17.6829 25.5941 15.6587
C 17.6005 25.5216 19.4311
C 18.3865 26.8342 15.7337
C 19.0303 25.5233 19.4219
C 15.4721 26.7732 22.8864
C 15.4442 26.6416 26.4702
C 16.1676 28.0079 23.0612
C 16.9006 26.6503 26.3875
C 17.5961 25.5298 22.7233
C 17.6261 25.4168 26.3751
C 18.3099 26.7621 22.8218
C 19.055 25.4231 26.2717
C 19.8141 24.3582 15.8861
C 19.7384 24.2896 19.4497
C 20.5272 25.5998 15.945
C 21.1711 24.2859 19.353
C 19.7232 24.2786 22.8553
C 19.7794 24.1958 26.3071
C 20.4412 25.5124 22.8898
C 21.208 24.204 26.2342
C 24.0912 16.9621 15.7553
C 24.0352 16.8612 19.3895
C 24.8325 18.1779 15.8235
C 25.399 16.8547 19.2041
H 25.9416 15.9071 19.1398
H 26.774 17.2442 15.9428
C 24.1105 19.4198 15.798
C 24.0227 19.3182 19.4021
C 24.8117 20.6556 15.9338
C 25.4344 19.3116 19.2213
C 26.2291 18.1922 15.9167
C 26.1445 18.0643 19.1081
C 26.9554 19.3921 15.9723
C 27.5596 18.0763 19.016
C 23.9764 16.8576 22.7978
C 24.1215 16.8102 26.2836
C 24.714 18.0654 22.8581
C 25.5206 16.8125 26.2509
H 26.0689 15.8666 26.2238
H 26.6709 17.1369 23.0028
C 24.0052 19.3082 22.8282
C 24.1012 19.2734 26.3117
C 24.7149 20.5464 22.9073
C 25.526 19.2789 26.2868
C 26.1267 18.0854 22.956
C 26.2673 18.0294 26.2984
C 26.8486 19.2852 22.995
C 27.6673 18.0586 26.4267
H 28.0887 17.1223 18.9456
H 28.2201 17.114 26.4359
C 30.508 20.6627 15.7239
C 30.4761 20.5094 19.1468
C 31.2176 21.8759 15.5675
C 31.8879 20.5466 19.3427
C 30.4294 20.5413 22.7758
C 30.5081 20.53 26.6605
C 31.1723 21.7597 22.7195
C 31.9265 20.582 26.6602
C 24.096 24.3685 16.0605
C 24.0363 24.2757 19.1607
C 24.8117 25.6061 16.0838
C 25.4739 24.2717 19.172
C 26.2371 23.136 16.0646
C 26.1783 23.0296 19.2276
C 26.9541 24.3702 16.0729
C 27.6129 23.0204 19.2436
C 24.0136 24.253 23.1014
C 24.0643 24.2232 26.1664
C 24.7318 25.4913 23.0606
C 25.4919 24.2325 26.1784
C 26.1522 23.0062 23.034
C 26.2132 22.9985 26.2384
C 26.8788 24.2474 23.0906
C 27.6365 23.0064 26.3205
C 28.3829 21.8957 15.9655
C 28.3189 21.7778 19.2146
C 29.0939 23.1302 15.9157
C 29.7563 21.7746 19.2445
C 28.2962 21.7809 22.9005
C 28.3507 21.7713 26.4571
C 29.0251 23.0114 22.8936
C 29.7843 21.7825 26.5702
H 30.2768 18.3546 18.8927
H 31.0561 19.7157 15.685
H 30.3445 18.3644 26.6432
H 30.9697 19.5893 22.7549
C 24.0955 21.8955 15.9691
C 24.033 21.7994 19.334
C 24.8094 23.132 16.0484
C 25.4558 21.7938 19.2696
C 26.2292 20.6504 16.0078
C 26.1649 20.5504 19.2194
C 26.953 21.893 16.0418
C 27.5927 20.5375 19.1605
C 24.0007 21.7813 22.9532
C 24.0837 21.7494 26.2525
C 24.7245 23.0121 23.0392
C 25.5098 21.7562 26.2528
C 26.1376 20.5432 22.945
C 26.2312 20.5238 26.3175
C 26.8642 21.772 22.9581
C 27.6472 20.5267 26.4478
C 28.3738 19.4245 15.8983
C 28.3138 19.2752 19.0132
C 29.109 20.6324 15.8897
C 29.7324 19.2992 18.9819
C 28.2749 19.3112 22.8557
C 28.3769 19.2662 26.5382
C 29.013 20.5307 22.8372
C 29.7901 19.3079 26.6374
H 32.4435 19.6033 19.3305
H 33.1795 20.9586 15.4451
H 32.4822 19.6399 26.6618
H 33.124 20.8381 22.6047
H 14.9418 32.6568 19.6046
H 14.8958 32.5101 26.3433
C 15.539 31.7744 15.4509
C 15.4816 31.7095 19.5113
C 16.2234 32.9897 15.5078
C 16.9006 31.737 19.5404
C 17.6626 30.5432 15.642
C 17.6119 30.4895 19.4403
C 18.365 31.7817 15.679
C 19.0435 30.4845 19.4081
H 15.6734 33.9334 15.463
H 17.094 33.9014 19.5434
C 17.645 33.0393 15.5805
C 17.6362 32.9524 19.468
C 18.3714 34.2564 15.5956
C 19.0498 32.9724 19.4825
C 15.4954 31.717 22.9517
C 15.4436 31.5636 26.3436
C 16.1754 32.9113 22.8642
C 16.8691 31.6086 26.4131
C 17.6071 30.4729 22.9137
C 17.5901 30.3533 26.3415
C 18.3128 31.7036 22.8388
C 19.0256 30.3633 26.3485
H 15.6292 33.8604 22.8421
H 17.0388 33.7559 26.6521
C 17.5969 32.9521 22.8219
C 17.5887 32.8115 26.5872
C 18.3197 34.1736 22.8563
C 18.9992 32.8335 26.684
C 21.9384 30.5511 15.9798
C 21.9014 30.4747 19.2988
C 22.6477 31.7895 15.9625
C 23.3308 30.4723 19.286
C 21.8896 30.4678 22.8943
C 21.8785 30.3862 26.2502
C 22.6091 31.7007 22.8912
C 23.3064 30.4012 26.2075
C 19.8016 31.7886 15.7822
C 19.7637 31.7127 19.4061
C 20.5129 33.0289 15.7641
C 21.1889 31.7107 19.3197
C 19.7503 31.705 22.8421
C 19.7305 31.591 26.4796
C 20.4637 32.9434 22.8801
C 21.1564 31.6122 26.4049
C 21.9462 28.0765 16.0269
C 21.8869 28.002 19.2139
C 22.6577 29.3144 16.0362
C 23.3244 28.0016 19.1133
C 21.8772 27.9875 22.9378
C 21.8951 27.9162 26.1306
C 22.5992 29.2307 22.9452
C 23.3243 27.9294 26.1129
C 19.8028 29.3132 15.8761
C 19.7507 29.2407 19.356
C 20.5129 30.5503 15.8983
C 21.18 29.2373 19.2993
C 19.7477 29.2322 22.8643
C 19.7431 29.1331 26.233
C 20.4631 30.4669 22.8657
C 21.1724 29.1461 26.1908
C 21.9031 35.5205 15.8796
C 21.9261 35.3947 19.1455
C 22.652 36.7352 15.9426
C 23.3318 35.4129 19.2725
C 21.8907 35.4395 22.9415
C 21.8402 35.2928 26.7582
C 22.6475 36.6464 22.9034
C 23.2473 35.3262 26.7869
H 19.9544 36.4435 15.7269
H 21.3826 36.3442 19.0923
H 19.9316 36.3741 22.933
H 21.286 36.2316 26.86
C 21.9301 33.0249 15.8811
C 21.9157 32.9403 19.2434
C 22.6404 34.2672 15.905
C 23.3355 32.9386 19.3074
C 21.8968 32.9369 22.9106
C 21.8633 32.8467 26.5083
C 22.6216 34.181 22.9072
C 23.2805 32.8623 26.455
H 17.8213 35.2009 15.5581
H 17.765 35.1167 22.8834
C 19.7864 34.2913 15.6649
C 19.7781 34.1774 19.3095
C 20.503 35.4961 15.744
C 21.197 34.1932 19.1329
C 19.732 34.2125 22.892
C 19.7215 34.0425 26.7201
C 20.4712 35.4227 22.9321
C 21.1287 34.0832 26.6672
C 32.6405 21.9103 15.4979
C 32.5697 21.7521 19.548
C 33.3386 23.109 15.5152
H 33.6522 21.7447 19.6975
C 32.67 24.3545 15.6015
C 32.5792 24.2497 19.6202
C 33.3696 25.5904 15.6415
H 33.6655 24.2473 19.7457
H 34.4312 23.1081 15.4642
C 32.5851 21.7891 22.6493
C 32.6065 21.7918 26.668
C 33.2965 22.997 22.68
H 33.7013 21.805 26.6869
C 32.6272 24.2513 22.7208
C 32.5992 24.2818 26.5771
C 33.3145 25.4926 22.7346
H 33.6923 24.2891 26.6481
H 34.3894 22.9914 22.6323
C 32.7298 29.3176 15.7765
C 32.601 29.1909 19.6545
C 33.3937 30.5693 15.7676
H 33.6933 29.1725 19.7316
H 34.4968 28.0385 15.7158
C 32.6151 29.2127 22.6651
C 32.5841 29.2183 26.4514
C 33.2912 30.4583 22.719
H 33.6781 29.2195 26.4868
H 34.4052 27.981 22.6804
C 32.7039 26.8287 15.7304
C 32.5858 26.7227 19.5682
C 33.4032 28.0634 15.7605
H 34.4605 25.5817 15.5653
C 32.6349 26.7381 22.6964
C 32.5814 26.752 26.5262
C 33.3099 27.9757 22.6911
H 34.4074 25.4877 22.703
H 22.1055 37.683 15.968
H 23.5128 37.5693 19.2908
H 22.1088 37.5977 22.9393
H 23.4179 37.4894 26.8939
C 24.0529 36.7299 15.9474
C 24.0649 36.6273 19.3517
H 24.6015 37.6755 15.9797
C 25.4343 36.6334 19.5012
C 26.2114 35.485 15.7835
C 26.1788 35.4227 19.573
H 26.7599 36.4315 15.7591
C 27.5977 35.4053 19.5984
H 25.9799 37.58 19.5553
C 24.0383 36.6312 22.8053
C 23.9803 36.5538 26.8157
H 24.5918 37.5732 22.7692
C 25.3611 36.5754 26.7469
C 26.1867 35.3803 22.6851
C 26.1191 35.3769 26.6619
H 26.7334 36.3254 22.607
C 27.5385 35.3777 26.6286
H 25.8987 37.5284 26.7725
H 30.2988 35.1212 19.622
H 30.2447 35.122 26.7018
H 28.1366 36.3574 19.6287
H 28.0661 36.3334 26.7012
C 30.4886 33.0394 15.7991
C 30.4944 32.9538 19.6466
H 31.0128 34.0002 15.7567
C 31.9157 32.9013 19.7387
C 30.4513 32.8868 22.6623
C 30.4555 32.9659 26.471
H 30.9991 33.8331 22.5835
C 31.8766 32.9261 26.3949
C 28.3423 34.2449 15.749
C 28.3412 34.2005 19.604
C 29.7598 34.1691 19.5962
C 28.318 34.1345 22.6972
C 28.2885 34.1852 26.5633
C 29.7094 34.1752 26.5906
C 32.6706 31.8069 15.6958
C 32.6037 31.6822 19.7947
H 33.2133 32.7551 15.6197
H 33.6921 31.6736 19.9021
H 34.4854 30.5785 15.7992
H 32.4674 33.8427 19.8191
C 32.5933 31.645 22.7426
C 32.578 31.7079 26.3173
H 33.1306 32.5973 22.7543
H 33.6697 31.7101 26.267
H 34.386 30.4546 22.7151
H 32.4241 33.8727 26.4037
H 33.6743 26.7582 26.5944
H 19.298 18.3308 26.7681
H 19.1699 34.9827 26.8228
H 14.3778 26.7789 22.9179
H 28.8636 35.0759 22.5615
H 33.6751 26.7167 19.6865
H 28.8274 18.3662 22.9006
H 19.1859 18.4119 19.342
H 19.2384 35.1311 19.3166
H 28.8849 35.1948 15.703
H 14.4678 26.8318 15.4078
H 28.9184 18.4772 15.8602
Li 16.9544 21.9032 13.9284
Li 16.2786 25.2322 17.5395
Li 31.2474 31.6393 28.1019
Li 19.0456 20.4695 17.4998
Li 32.0576 30.5438 14.0088
Li 22.473 19.2036 17.6805
Li 16.1119 30.3119 28.0867
Li 18.9477 33.0011 24.6661
Li 24.8652 17.9923 28.0438
Li 16.0185 25.4134 24.6613
Li 27.5974 20.6611 14.2152
Li 18.9446 20.6202 24.7516
Li 23.3465 35.5646 14.1685
Li 18.9979 33.2169 17.4716
Li 16.1235 28.1264 17.4652
Li 21.3586 19.1333 24.617
Li 29.2488 20.4024 24.7938
Li 32.0566 25.5129 24.5705
Li 23.4535 35.4724 24.7035
Li 26.7964 34.3998 24.6918
Li 26.8195 34.3865 17.7393
Li 21.1868 34.3183 21.1272
Li 31.9733 28.2246 24.5131
Li 26.8174 19.0673 20.9523
Li 16.2486 22.4053 24.7093
Li 32.1991 25.3904 17.5842
Li 29.1308 32.9513 17.766
Li 32.1446 28.1005 17.645
Li 31.9982 22.7665 24.5754
Li 15.9913 28.0436 21.0724
Li 29.3971 33.4004 24.5977
Li 29.2171 20.2481 20.8726
Li 16.6449 31.7534 17.4303
Li 23.3872 28.0371 21.1648
Li 31.4469 21.8946 17.5874
Li 27.1123 24.8184 21.0923
Li 18.2987 19.3485 21.0773
Li 23.0139 24.7179 21.0994
Li 31.6637 31.7026 17.8049
Li 26.7192 28.3064 21.1637
Li 20.2378 33.8619 28.4387
