630
592nano.out 0 0 0
C 22.6838 21.943 16.7074
C 20.5276 23.1538 16.7888
C 21.9761 20.7126 16.5101
C 24.1166 21.9618 16.702
C 19.8231 21.9159 16.6223
C 19.8021 24.3835 16.8558
C 29.0679 25.7237 16.6044
C 29.048 28.1953 16.5865
C 28.3637 24.4824 16.6555
C 20.4529 30.5827 16.9101
C 22.5737 31.8387 16.8149
C 19.7574 29.3385 16.9548
C 28.3248 29.426 16.6346
C 24.0007 31.8563 16.7883
C 24.8442 20.7397 16.5546
C 21.955 23.1673 16.8248
C 18.3738 24.3685 16.7615
C 26.9666 21.9978 16.6051
C 28.3456 26.9538 16.6868
C 18.3539 26.8442 16.8552
C 21.8772 30.5952 16.9229
C 20.5468 20.7005 16.4446
C 29.089 23.2511 16.5585
C 26.2392 23.2207 16.7392
C 19.7768 26.8581 16.9649
C 26.1688 30.6486 16.7835
C 18.33 29.3267 16.8554
C 30.4892 25.7336 16.4054
C 26.8641 31.8904 16.6132
C 30.4677 28.1966 16.3781
C 19.7224 31.8123 16.8022
C 29.0177 30.6649 16.4569
C 26.898 29.4178 16.7861
C 24.7399 30.6305 16.8673
C 21.8347 33.0571 16.6803
C 24.694 33.0941 16.6108
C 24.8131 23.2041 16.7964
C 26.9413 24.4667 16.7651
C 20.5024 25.6262 16.9495
C 20.4791 28.1071 16.993
C 26.2649 20.7599 16.5129
C 17.6576 25.596 16.7531
C 22.7073 19.4856 16.3619
C 28.3935 22.0157 16.5408
C 18.3971 21.9 16.5684
C 17.6447 28.0867 16.7377
C 24.1291 19.4977 16.4357
C 17.6755 23.1192 16.6374
C 31.1846 26.9678 16.2702
C 28.2867 31.8878 16.438
C 26.1166 33.1076 16.5165
C 20.412 33.0454 16.6796
C 26.9199 26.9413 16.8199
C 22.6077 29.367 16.9818
C 22.6564 24.4151 16.9182
C 30.5124 23.2636 16.4203
C 31.2063 24.4964 16.2884
C 17.6064 30.5631 16.7747
C 18.2971 31.7995 16.7601
C 31.1575 29.4337 16.1699
C 26.1953 28.1749 16.8719
C 24.0391 29.3857 16.955
C 30.4371 30.6617 16.2067
C 26.2175 25.6967 16.8539
C 21.9071 28.1231 17.0112
C 22.5213 34.292 16.4667
C 21.9322 25.6447 16.9753
C 24.0849 24.4345 16.8989
C 23.9466 34.3122 16.4302
C 19.8297 19.4605 16.1709
C 24.7669 28.1577 16.952
C 22.6343 26.8918 17.0031
C 24.7875 25.6794 16.9256
C 21.9971 18.2523 16.0929
C 17.6969 20.6527 16.4185
C 26.9888 19.5213 16.3216
C 29.1218 20.7782 16.4191
C 16.2279 25.5833 16.5542
C 24.8469 18.267 16.3262
C 16.2291 28.0842 16.4723
C 16.2519 23.1046 16.5294
C 24.0622 26.9104 16.9768
C 32.6126 26.9754 15.9983
C 20.582 18.2692 15.939
C 18.4197 19.4634 16.2474
C 19.6665 34.2764 16.535
C 31.2291 22.0228 16.3444
C 28.9785 33.1219 16.1504
C 26.8021 34.3453 16.2271
C 32.6249 24.502 16.0404
C 16.1841 30.5501 16.6383
C 32.5822 29.4244 15.89
C 17.5631 33.0279 16.6335
C 21.7612 35.514 16.2577
C 31.1246 31.8995 15.9345
C 24.6399 35.5487 16.1621
C 26.2574 18.3016 16.2811
C 15.5642 24.3409 16.4679
C 33.303 25.7394 15.8807
C 28.402 19.5602 16.3201
C 33.2867 28.2067 15.9117
C 30.5229 20.811 16.3767
C 15.5199 26.8348 16.5423
C 22.7466 17.0324 16.0917
C 18.2596 34.2373 16.5477
C 20.3653 35.4878 16.3591
C 15.5344 29.311 16.4823
C 16.268 20.6671 16.4207
C 24.1177 17.0437 16.2244
C 15.5726 21.8539 16.4601
C 30.3726 33.1094 15.9509
C 28.2463 34.3642 16.2006
C 26.0615 35.5348 16.1014
H 20.0441 17.3223 15.7568
H 17.8738 18.5109 16.1362
C 33.3254 23.2551 16.0849
C 32.6519 22.0588 16.2259
C 33.2288 30.6681 15.5919
C 15.4637 31.7819 16.6161
C 16.133 32.9831 16.5886
C 32.5129 31.8698 15.613
C 22.4865 36.7264 15.9832
C 23.8789 36.7362 15.933
H 34.3804 28.2077 15.7583
H 34.4071 25.749 15.7876
H 26.7947 17.3474 16.0822
H 22.2055 16.0773 15.9796
H 15.7317 19.706 16.3607
H 14.4774 24.3194 16.2262
H 19.7951 36.4244 16.2452
H 17.6912 35.1755 16.4391
H 31.0835 19.8612 16.3285
H 14.428 29.302 16.5144
H 24.6831 16.0953 16.2217
H 28.9772 18.6341 16.1077
H 14.4697 21.8549 16.4349
H 14.45 26.8404 16.2474
H 30.8858 34.0438 15.6474
H 26.5833 36.4686 15.811
H 34.4261 23.2675 16.0099
H 33.1976 21.0997 16.203
H 28.7162 35.2293 15.6889
H 34.3062 30.6549 15.3624
H 15.5749 33.9296 16.4946
H 14.3608 31.7447 16.5757
H 21.9175 37.6569 15.8261
H 33.027 32.8184 15.3943
H 24.4177 37.6789 15.7402
C 23.4009 20.6754 19.8021
C 19.0958 23.1396 19.8291
C 21.2457 21.9137 19.8534
C 21.9732 20.6871 19.804
C 26.2563 20.6882 19.6908
C 19.8234 21.916 19.7577
C 25.5353 21.9188 19.8091
C 28.4019 21.9332 19.6665
C 24.1087 21.913 19.8607
C 27.6774 23.1603 19.7605
C 19.0779 25.6083 19.9983
C 19.8012 24.3762 19.9643
C 24.1108 19.4374 19.694
C 19.0582 28.091 20.0681
C 17.6468 25.5973 19.9206
C 28.3844 24.4004 19.759
C 27.7008 20.694 19.6596
C 17.6285 28.0876 20.0303
C 29.8068 24.4086 19.6136
C 17.6699 23.1209 19.7439
C 26.2443 23.1607 19.8483
C 19.7745 29.3303 20.0721
C 25.543 19.4401 19.6743
C 21.9567 23.1509 19.9474
C 19.7894 26.8513 20.0704
C 19.0579 30.5629 19.9859
C 29.8292 21.93 19.5584
C 29.7981 26.9011 19.6362
C 28.3756 26.8881 19.8073
C 28.3711 29.3696 19.8208
C 16.9068 26.8415 19.9852
C 24.0655 31.8261 19.9678
C 21.9232 30.5714 20.035
C 30.5262 23.1699 19.5017
C 16.9422 24.3463 19.8277
C 27.6497 30.6005 19.853
C 23.3875 23.1512 19.9431
C 25.4923 31.8388 19.9349
C 21.2339 24.3824 20.0024
C 21.1986 31.8041 19.9293
C 26.2183 30.5963 19.9386
C 27.6716 25.6422 19.852
C 30.5038 25.6634 19.5348
C 21.2114 29.3347 20.086
C 29.802 29.3765 19.6878
C 27.6599 28.126 19.8791
C 23.3548 30.5814 20.0281
C 21.2656 19.4458 19.7369
C 16.9012 29.3266 20.0105
C 23.3408 33.0577 19.8953
C 19.1077 20.6827 19.5618
C 17.6225 30.5593 19.9247
C 19.7767 31.7949 19.8989
C 30.5039 28.1388 19.5567
C 21.9061 33.0379 19.8225
C 25.5305 24.3934 19.9345
C 21.2171 26.8578 20.0865
C 25.5119 29.3565 19.9967
C 23.4002 18.1822 19.6014
C 28.4411 19.4456 19.6326
C 28.3584 31.8501 19.7653
C 26.2428 25.6381 19.9397
C 26.1947 33.0834 19.88
C 21.9335 28.0998 20.0945
C 24.0763 29.3481 20.0469
C 26.2324 28.1193 19.969
C 24.0969 24.3904 19.9782
C 21.9443 25.6222 20.0524
C 16.9566 21.8791 19.5558
C 19.8312 19.4543 19.6969
C 26.268 18.1755 19.6653
C 21.9745 18.2125 19.6955
C 30.5134 30.6106 19.6585
C 30.5679 20.6895 19.4583
C 17.7048 20.6755 19.483
C 24.045 34.2996 19.8686
C 23.3655 28.1057 20.0703
C 25.5217 26.874 19.9936
C 15.4512 26.8303 20.0486
C 23.3758 25.627 20.0328
C 31.9412 25.6639 19.3929
C 27.6278 33.0921 19.8057
C 24.0898 26.8688 20.0418
C 31.9624 23.1632 19.3642
C 15.4873 24.3197 19.8663
C 29.7937 31.8536 19.7204
C 29.8499 19.4603 19.544
C 15.4452 29.336 19.9813
C 25.4773 34.3159 19.8941
C 31.9161 28.1506 19.3033
C 27.7131 18.2139 19.8354
C 19.0548 33.0256 19.7183
C 16.8976 31.7984 19.773
C 21.1833 34.2712 19.6519
C 24.1277 16.9791 19.444
C 14.7185 28.0648 20.1091
C 32.6357 24.4197 19.3963
C 14.7793 25.5722 20.0647
C 32.6129 26.9168 19.2636
C 25.5404 16.974 19.5041
C 15.537 21.8881 19.532
C 17.6286 33.029 19.7814
C 31.978 20.7167 19.3322
C 19.7704 34.237 19.6164
C 31.9652 30.6212 19.5562
H 19.2859 18.5075 19.4942
H 21.4155 17.2556 19.6377
C 32.6669 21.9387 19.2645
C 23.3027 35.5552 19.8595
H 17.171 19.7303 19.282
C 32.6318 29.3794 19.3232
C 14.8207 23.0787 19.7486
C 21.8858 35.5039 19.7114
H 30.3956 18.5175 19.3443
C 14.7752 30.5683 19.8335
C 15.48 31.7779 19.7468
H 28.2689 17.2512 19.8127
C 28.3479 34.3559 19.8968
H 23.5777 16.0351 19.3059
H 13.6337 28.0556 19.8814
C 30.5355 33.1206 19.7549
C 26.1937 35.5891 19.9442
H 33.7347 24.3695 19.2888
H 14.9971 20.9412 19.3877
H 13.6851 25.5652 20.216
H 33.6997 26.966 19.0146
H 26.0859 16.0182 19.4142
H 32.5352 19.767 19.2762
H 17.0894 33.9309 19.4312
H 19.2279 35.1633 19.3428
H 33.7648 21.9628 19.1575
H 33.7122 29.3788 19.0604
H 13.717 23.0662 19.7919
H 13.6772 30.5646 19.7101
C 32.6603 31.8683 19.5297
H 21.3158 36.448 19.6699
C 24.031 36.7874 19.8412
H 14.9363 32.7335 19.6219
C 27.6272 35.5659 20.0041
C 29.7789 34.3355 19.942
C 31.9435 33.1067 19.6469
C 25.4546 36.7937 19.9107
H 33.7646 31.864 19.5335
H 23.4727 37.7364 19.8934
H 28.1747 36.5081 20.1853
H 30.3253 35.2765 20.1313
H 32.5015 34.0564 19.6742
H 25.9933 37.7533 19.9629
H 15.1258 20.093 23.4494
H 21.3714 15.9445 23.631
H 17.2054 18.668 23.2487
H 19.3008 17.2927 23.5403
H 23.8682 15.7952 23.5655
H 14.0161 22.3587 23.3924
C 21.9845 16.8569 23.5463
C 15.7491 20.998 23.357
H 32.7461 20.0955 22.9873
C 17.8229 19.585 23.3048
C 19.907 18.2153 23.484
C 23.3667 16.7735 23.4993
H 26.0804 16.8975 23.5447
H 34.1574 22.2018 22.8813
C 15.116 22.286 23.3637
H 34.6733 29.6953 23.1439
H 14.2024 24.8772 23.3622
H 14.7238 32.2341 23.9611
H 28.2747 17.9963 23.5638
H 30.4907 19.075 23.5628
H 16.077 34.3308 23.7069
H 14.4018 27.3263 23.7116
H 34.5298 27.1844 22.972
H 22.8283 37.6622 23.4613
H 33.5586 31.9367 23.3724
H 14.5928 29.7535 24.0434
H 34.3362 24.709 22.8691
C 17.1566 20.8681 23.308
C 21.3319 18.1149 23.5363
H 25.3597 37.4848 23.501
C 19.2606 19.4695 23.3872
H 20.5649 36.5711 23.3497
C 32.2623 21.0862 23.0127
C 33.0602 22.2787 22.9501
H 18.3199 35.4921 23.4873
C 25.5889 17.8778 23.4084
C 33.5709 29.7571 23.1676
C 15.3026 24.7841 23.4634
H 31.4717 33.3247 23.5252
C 15.8105 32.1725 23.8007
C 24.1716 17.9463 23.44
H 27.4145 36.062 23.4423
H 29.4221 34.6735 23.6118
C 15.8921 23.4812 23.3402
C 16.5791 33.348 23.6695
C 27.7995 18.9752 23.3439
C 32.9449 31.0212 23.2983
C 30.0154 20.0336 23.2616
C 23.3088 36.6704 23.4776
C 15.5094 27.2484 23.6408
C 33.4263 27.2652 22.9786
C 15.6678 29.6974 23.7925
C 33.238 24.7827 22.9206
C 24.7398 36.5736 23.5351
C 26.3768 19.0462 23.3508
C 30.8336 21.1777 23.0864
C 21.05 35.5814 23.3642
C 28.6004 20.1404 23.2771
C 16.1077 25.9687 23.5248
C 32.4716 23.5621 22.9614
C 18.8035 34.4986 23.3991
C 22.1204 19.3208 23.3691
C 32.8074 28.5755 23.0919
C 17.9755 22.0776 23.2515
C 16.4223 30.8951 23.7253
C 24.0176 26.675 23.0648
C 16.2913 28.4353 23.7142
C 20.0537 20.6897 23.2796
C 32.6416 26.0701 22.9586
C 24.8219 27.8601 23.0811
C 30.869 32.3982 23.4515
C 22.5894 26.766 23.1015
C 24.6499 25.3911 23.048
C 23.54 19.2371 23.3207
C 17.9847 33.296 23.4792
C 26.7854 35.1538 23.4456
C 22.4947 35.5236 23.4193
C 17.3492 23.3769 23.3002
C 28.8068 33.7582 23.533
C 31.5297 31.1253 23.344
C 24.1902 29.1405 23.1193
C 26.2536 27.7741 23.0677
C 21.7966 25.5685 23.1061
C 23.8564 24.1956 23.0447
C 20.235 34.4178 23.3618
C 21.9638 28.0509 23.1504
C 26.082 25.3031 23.07
C 25.3762 35.2879 23.4886
C 21.4856 20.605 23.2474
C 19.407 21.9758 23.2071
C 22.4253 24.2794 23.0717
C 22.7606 29.2418 23.1542
C 26.8891 26.4903 23.0508
C 25.7494 20.3499 23.2135
C 29.4487 32.4956 23.4938
C 17.5394 25.8635 23.4155
C 27.9675 21.4397 23.1371
C 30.1935 22.4902 23.0479
C 27.3985 33.8809 23.3559
C 31.0036 23.6831 23.0108
C 24.3241 20.4308 23.1878
C 24.49 22.9119 23.0511
C 20.3723 25.6615 23.1717
C 18.1501 24.5655 23.293
C 17.711 28.333 23.504
C 26.711 24.0111 23.0863
C 20.539 28.1454 23.2206
C 27.0556 28.9555 23.11
C 21.6319 23.0865 23.0992
C 26.5456 21.5388 23.1288
C 24.9892 30.3249 23.1457
C 17.8562 30.8042 23.5313
C 31.3507 28.6579 23.1147
C 22.2731 21.7982 23.1206
C 20.2025 23.1745 23.1483
C 25.911 22.8283 23.084
C 23.6955 21.7126 23.0948
C 31.1877 26.1827 23.0014
C 19.7511 26.9554 23.2448
C 18.6417 31.9964 23.442
C 19.5766 24.4658 23.1913
C 18.3291 27.0538 23.3807
C 28.7699 22.6141 23.0828
C 28.3175 26.3821 23.0416
C 26.4203 30.2292 23.1594
C 23.1216 34.1907 23.4003
C 22.1301 30.5234 23.2149
C 30.7149 29.9312 23.2259
C 18.4908 29.525 23.4348
C 28.1397 23.9069 23.0756
C 30.3778 24.9775 23.0196
C 20.864 33.1038 23.3432
C 19.9094 29.4348 23.294
C 30.5547 27.4751 23.05
C 28.9376 25.0914 23.0477
C 24.5591 34.0817 23.3956
C 28.4912 28.8518 23.1155
C 29.1256 27.5746 23.0584
C 20.6949 30.6241 23.2771
C 24.3513 31.6066 23.1938
C 20.0672 31.9058 23.3378
C 28.6485 31.3104 23.3179
C 22.9269 31.7067 23.2422
C 26.5866 32.6849 23.289
C 22.3112 33.0081 23.3343
C 27.2223 31.4118 23.2525
C 29.2902 30.0325 23.215
C 25.1597 32.7914 23.2794
H 23.2097 15.8101 26.6214
H 14.8059 20.926 27.2403
H 25.7044 15.7356 26.5875
H 32.1815 19.2698 26.9991
H 33.4594 21.4054 27.2559
H 13.6072 23.1136 27.3609
H 15.0585 32.6699 27.1835
H 13.7501 30.5452 27.1109
H 19.0851 18.3864 27.0374
H 21.1271 17.1037 26.6633
H 16.949 19.6525 27.1848
H 33.6272 26.3436 27.0525
H 19.4083 34.9806 27.5403
H 33.7482 31.2379 27.4996
H 23.7261 37.3404 27.8416
H 33.5593 23.8883 27.0453
H 17.2377 33.798 27.4604
H 27.8611 16.884 26.5503
H 30.0189 18.0822 26.6479
H 33.6811 28.7849 27.2702
H 32.5515 33.4328 27.6741
H 21.553 36.1813 27.5594
H 26.2301 37.3082 27.7627
H 13.7118 28.0939 27.2503
H 13.6922 25.621 27.5755
C 23.7951 16.7375 26.5504
C 25.1606 16.692 26.5276
C 15.3771 21.8682 27.1751
C 31.6614 20.2341 26.8738
C 14.7031 23.0933 27.2344
C 32.3766 21.4235 27.0286
C 14.8496 30.5297 27.024
C 15.5716 31.7016 27.0613
H 30.4557 34.7363 27.6019
H 28.3622 36.043 27.5602
C 21.6988 18.0415 26.5746
C 19.613 19.3234 26.7587
C 17.4939 20.5776 26.9038
C 32.6606 31.2943 27.329
C 24.2599 36.4075 27.5946
C 31.9952 32.5167 27.4221
C 27.3306 17.8578 26.4804
C 25.6582 36.3923 27.5383
C 29.4934 19.0454 26.5569
C 32.4659 23.915 26.8771
C 32.5619 26.3843 26.7484
C 17.7554 32.8686 27.1478
C 19.9138 34.0692 27.1627
C 14.7617 25.5909 27.3074
C 14.8029 28.0602 27.0842
C 32.6173 28.8373 26.9661
C 22.0792 35.2396 27.3232
C 23.0896 17.9829 26.4978
C 25.9332 17.8939 26.4516
C 16.7867 21.8063 26.9601
C 30.2432 20.2288 26.6253
C 15.4085 24.3371 27.1471
C 31.7378 22.6922 26.8422
C 15.5093 29.2682 26.944
C 21.0139 19.265 26.5692
C 16.992 31.6904 26.9845
C 18.9065 20.5422 26.7704
C 28.0863 19.0542 26.4731
C 29.8903 33.8241 27.3477
C 27.7942 35.1269 27.328
C 15.4664 26.8189 27.1182
C 24.0083 26.6301 26.123
C 31.958 30.0953 27.0222
C 31.8245 25.1608 26.7801
C 23.4996 35.2323 27.3151
C 19.1623 32.8591 27.0749
C 31.8937 27.6404 26.8005
C 21.3368 34.0564 27.1694
C 30.5795 32.6048 27.2272
C 26.3778 35.1812 27.2892
C 23.3251 27.8818 26.1741
C 25.4403 26.5961 26.1208
C 23.2624 25.4087 26.1276
C 28.4934 33.8938 27.2162
C 24.0759 29.0984 26.2229
C 26.1938 27.8111 26.1661
C 23.8305 19.2022 26.3798
C 21.8939 27.9112 26.23
C 26.1186 25.3381 26.1286
C 25.243 19.1572 26.3644
C 17.5131 23.045 26.765
C 21.8343 25.4389 26.182
C 23.9476 24.1517 26.1169
C 16.8318 24.2945 26.8521
C 29.5704 21.5024 26.485
C 30.3124 22.7195 26.5655
C 16.9336 29.2417 26.773
C 17.6718 30.4513 26.7739
C 25.5095 29.0624 26.223
C 21.149 26.6907 26.2381
C 25.3749 24.1145 26.1159
C 27.404 20.3272 26.3707
C 21.7396 20.4912 26.3953
C 19.6296 21.7752 26.5154
C 30.5345 30.153 26.7947
C 16.8869 26.7763 26.8034
C 24.1983 34.0004 26.9947
C 30.3909 25.2072 26.5276
C 29.8503 31.3978 26.8942
C 19.8465 31.6268 26.7597
C 25.623 33.9681 26.9978
C 30.465 27.6911 26.5495
C 22.0291 32.8152 26.8375
C 21.2067 29.161 26.3427
C 23.3866 30.3443 26.3508
C 27.6259 27.7765 26.2313
C 27.548 25.2942 26.2049
C 21.0869 24.2149 26.2377
C 25.984 20.3732 26.2998
C 23.2027 22.9338 26.1657
C 23.1505 20.4582 26.3113
C 18.935 23.0167 26.5145
C 28.1489 21.5404 26.333
C 17.5657 25.5252 26.6829
C 17.6149 27.9917 26.6549
C 21.0428 21.7422 26.361
C 21.9527 30.3775 26.4131
C 29.6478 23.9891 26.42
C 28.2998 26.5149 26.2531
C 21.7749 22.9651 26.2311
C 19.1012 30.4262 26.6445
C 27.7421 32.6792 26.8961
C 19.7186 26.7164 26.3603
C 29.7272 26.4721 26.4073
C 26.0561 22.8544 26.1543
C 21.2735 31.6143 26.6443
C 26.265 30.2697 26.3655
C 29.7974 28.9419 26.5349
C 23.4553 32.791 26.7457
C 23.8876 21.6809 26.2033
C 19.6623 24.2398 26.3676
C 19.781 29.1832 26.4565
C 28.2247 24.0289 26.2497
C 25.3088 21.6379 26.1984
C 18.9753 25.4952 26.4417
C 27.482 22.8062 26.2184
C 19.0369 27.9636 26.467
C 24.1405 31.5481 26.5058
C 28.4278 31.4471 26.7125
C 26.3127 32.7171 26.7786
C 28.3756 28.9925 26.3698
C 25.5758 31.506 26.5337
C 27.695 30.2416 26.4477
Li 31.6032 21.9014 21.1727
Li 16.815 32.0512 21.8384
Li 16.2194 22.2113 21.5654
Li 24.6127 35.7297 21.5998
Li 31.6241 31.8411 21.3962
Li 28.8749 33.0175 21.5404
Li 21.7675 34.3475 21.6386
Li 20.9068 18.6986 21.5898
Li 15.3037 28.6968 21.9404
Li 16.2825 25.4422 21.5917
Li 26.9544 19.7438 21.433
Li 33.1554 28.1207 21.0402
Li 33.1401 27.7951 25.0884
Li 31.7163 24.8633 21.266
Li 18.5536 20.2379 21.4722
Li 24.6861 17.8242 21.378
Li 29.3587 18.8386 21.5845
Li 18.4759 34.318 21.3348
Li 29.826 34.1054 17.8139
Li 31.8465 24.8931 24.7543
Li 27.2662 35.5141 17.9127
Li 27.3552 34.2426 25.3785
Li 18.4556 34.0621 25.4787
Li 21.6285 34.359 25.1518
Li 31.6192 31.6534 25.4028
Li 24.6586 35.8244 25.5581
Li 14.9696 25.9308 25.2793
Li 31.7012 21.5487 24.9961
Li 18.0856 19.2546 25.3259
Li 14.7082 25.4381 18.0108
Li 23.2094 35.9539 17.8728
Li 20.8823 18.727 17.8937
Li 32.4823 30.8977 17.5625
Li 15.805 22.8556 25.3301
Li 27.7159 18.2132 17.7717
Li 15.2959 28.2402 18.1965
Li 33.298 25.5456 17.8424
Li 29.3646 19.4441 24.9996
