625
592nano.out 0 0 0
C 24.0862 26.8436 16.2199
C 24.0332 26.7502 19.4661
C 24.8004 28.0805 16.2219
C 25.4593 26.7493 19.4726
C 26.2311 25.6101 16.229
C 26.1715 25.5124 19.4641
C 26.9471 26.846 16.2301
C 27.597 25.509 19.4696
C 24.0858 29.3153 16.1774
C 24.0376 29.2169 19.4538
C 24.7992 30.5525 16.1259
C 25.4644 29.217 19.4698
C 26.2296 28.082 16.2239
C 26.1749 27.9827 19.4798
C 26.9419 29.3167 16.1634
C 27.6023 27.982 19.4971
C 24.023 26.7414 22.748
C 24.0343 26.6935 25.9899
C 24.7372 27.9763 22.745
C 25.4633 26.7011 25.9954
C 26.1608 25.5012 22.747
C 26.1814 25.4661 26.0327
C 26.8755 26.7339 22.7499
C 27.6088 25.4733 26.1008
C 24.0246 29.2125 22.7463
C 24.0255 29.1671 26.0313
C 24.737 30.4465 22.744
C 25.4543 29.1782 26.021
C 26.1634 27.9696 22.7511
C 26.1725 27.9428 26.0067
C 26.878 29.2019 22.7549
C 27.5976 27.9522 26.0587
C 30.5147 25.5995 15.9922
C 30.4402 25.4929 19.5584
C 31.2344 26.8289 15.9369
C 31.8788 25.4846 19.6595
C 30.443 25.4857 22.7174
C 30.4449 25.4894 26.3853
C 31.1648 26.7233 22.6942
C 31.8877 25.498 26.5443
C 28.3758 26.8445 16.1833
C 28.312 26.7434 19.498
C 29.0924 28.0815 16.1354
C 29.7348 26.739 19.5439
C 28.3038 26.7286 22.7542
C 28.3148 26.7155 26.1211
C 29.0175 27.9609 22.7529
C 29.7393 26.7243 26.2604
C 30.512 23.1245 16.0315
C 30.4391 23.0246 19.417
C 31.2201 24.3474 15.9088
C 31.8666 23.025 19.4584
C 30.4337 23.0108 22.6152
C 30.4696 23.0132 26.4314
C 31.1561 24.2356 22.6698
C 31.906 23.0303 26.5601
C 28.3737 24.3737 16.1603
C 28.3045 24.2734 19.4416
C 29.087 25.6062 16.1327
C 29.7315 24.2664 19.4732
C 28.2966 24.2586 22.728
C 28.3255 24.2378 26.1917
C 29.0154 25.4917 22.7409
C 29.7472 24.2492 26.3281
C 30.5198 30.5507 16.0195
C 30.4594 30.4483 19.5943
C 31.2378 31.8133 16.0045
C 31.8851 30.4428 19.6089
C 30.4495 30.4285 22.7179
C 30.4491 30.4421 26.1767
C 31.1631 31.6613 22.7351
C 31.9011 30.4313 26.2099
C 24.0753 34.2597 15.9715
C 24.0468 34.1593 19.3649
C 24.8095 35.5083 15.9478
C 25.4594 34.1672 19.5103
C 26.2174 33.0153 15.891
C 26.1808 32.9242 19.5239
C 26.9392 34.2701 15.745
C 27.6111 32.9266 19.583
C 24.028 34.16 22.7313
C 23.9961 34.0923 26.5435
C 24.7547 35.4023 22.6977
C 25.4144 34.1123 26.5138
C 26.1611 32.9063 22.6707
C 26.1508 32.885 26.3402
C 26.8816 34.1597 22.6032
C 27.5793 32.9007 26.332
C 28.3688 31.7801 15.9257
C 28.3212 31.6863 19.5754
C 29.0933 33.0321 15.7811
C 29.7579 31.681 19.6267
C 28.3058 31.652 22.6761
C 28.301 31.6729 26.1989
C 29.0283 32.8944 22.6314
C 29.7358 31.6782 26.1997
C 30.5217 28.0741 16.0328
C 30.4436 27.9781 19.5926
C 31.2395 29.3155 15.9866
C 31.8852 27.9759 19.6807
C 30.4485 27.9591 22.7092
C 30.4408 27.9698 26.2986
C 31.1656 29.2042 22.682
C 31.8829 27.976 26.4594
C 24.0822 31.7875 16.0578
C 24.0432 31.6842 19.4185
C 24.7952 33.0173 15.9715
C 25.47 31.6876 19.469
C 26.2255 30.5535 16.1079
C 26.1813 30.4532 19.4829
C 26.9392 31.788 15.9783
C 27.6053 30.4516 19.5175
C 24.0239 31.6821 22.7398
C 24.0163 31.6343 26.2181
C 24.7407 32.9147 22.714
C 25.4407 31.6459 26.1904
C 26.1646 30.4388 22.7403
C 26.1629 30.4194 26.0793
C 26.8782 31.6708 22.6981
C 27.5939 30.4324 26.0955
C 28.3701 29.3166 16.1179
C 28.3145 29.2133 19.5232
C 29.0825 30.553 16.0221
C 29.7416 29.2103 19.5654
C 28.3035 29.1938 22.7484
C 28.308 29.1967 26.0856
C 29.0172 30.4291 22.717
C 29.7337 29.1987 26.1787
H 14.4446 21.8879 15.6674
H 14.9475 20.8711 19.4178
H 14.3774 21.8244 22.5329
H 14.9724 20.791 26.7967
H 22.161 16.0308 15.6844
C 22.7166 16.9737 15.6894
H 23.5197 15.9338 19.4963
H 22.0684 15.922 22.6655
C 22.6173 16.8672 22.7134
H 23.5428 15.8669 26.2393
H 15.6863 19.721 15.6207
C 16.2362 20.6652 15.6596
H 17.0757 19.639 19.5582
H 17.8633 18.4577 15.6191
C 18.4029 19.4079 15.6555
H 15.5964 19.6666 22.7577
C 16.1485 20.612 22.7449
H 17.1325 19.5619 26.8305
H 17.7418 18.3934 22.7992
C 18.2943 19.3377 22.8125
H 20.029 17.2475 15.559
C 20.5645 18.2017 15.5845
H 21.3714 17.1629 19.6295
H 19.9113 17.1471 22.6976
C 20.4539 18.0965 22.7113
H 21.3916 17.1038 26.5429
H 24.6303 16.0315 15.8999
H 24.5435 15.9336 22.8376
H 13.6566 25.475 19.411
C 14.751 25.5029 19.4124
H 13.6656 25.4171 26.4981
C 14.7586 25.4233 26.4717
H 13.692 23.0153 19.4247
H 14.4441 24.3825 15.6011
C 14.7861 23.0125 19.4473
H 13.7015 22.9189 26.5858
H 14.3947 24.3122 22.5108
C 14.7956 22.9305 26.5752
H 13.6837 30.543 19.5455
H 14.4669 31.7783 15.5598
C 14.7786 30.5255 19.5044
H 13.6613 30.3875 26.1997
H 14.4094 31.6833 22.8638
C 14.7546 30.3868 26.2351
H 13.6373 28.0196 19.2242
H 14.4651 29.3128 15.5569
C 14.7332 28.0137 19.2311
H 13.6523 27.9003 26.3709
H 14.4154 29.2171 23.0184
C 14.7474 27.8981 26.3574
C 15.5379 21.8849 15.6893
C 15.4816 21.8254 19.4426
C 16.2155 23.1338 15.7247
C 16.9022 21.7952 19.4844
C 17.6614 20.6172 15.6855
C 17.6245 20.5867 19.5312
C 18.3817 21.8868 15.7721
C 19.0322 20.5573 19.629
C 15.5375 24.3774 15.651
C 15.4543 24.2664 19.4802
C 16.2298 25.605 15.6112
C 16.8915 24.2657 19.4885
C 17.6671 23.1239 15.7905
C 17.6075 23.0402 19.4938
C 18.383 24.3682 15.8436
C 19.0385 23.0426 19.5049
C 15.469 21.8175 22.6047
C 15.5072 21.7411 26.7068
C 16.1597 23.0634 22.5843
C 16.9304 21.7167 26.6936
C 17.5715 20.5566 22.7692
C 17.6718 20.5101 26.733
C 18.2938 21.8094 22.7649
C 19.0761 20.4996 26.7026
C 15.4856 24.308 22.5828
C 15.4554 24.1904 26.5062
C 16.1729 25.5311 22.6355
C 16.9037 24.1888 26.4375
C 17.5964 23.0461 22.6914
C 17.6319 22.9668 26.5173
C 18.3198 24.2842 22.7193
C 19.063 22.9738 26.4229
C 21.963 20.6683 15.7673
C 21.9002 20.5745 19.5376
C 22.6712 21.9043 15.9338
C 23.324 20.5747 19.473
C 21.8727 20.5638 22.7621
C 21.9367 20.5163 26.433
C 22.5889 21.802 22.7896
C 23.3531 20.5166 26.3027
C 19.8189 21.89 15.8241
C 19.7521 21.8159 19.552
C 20.524 23.1295 15.9476
C 21.1818 21.8111 19.5193
C 19.7329 21.8042 22.797
C 19.7874 21.7529 26.513
C 20.4522 23.0382 22.7928
C 21.2098 21.7449 26.3807
C 21.9694 18.1904 15.6098
C 21.9138 18.111 19.5875
C 22.6923 19.4351 15.6581
C 23.3241 18.0912 19.5059
C 21.8704 18.079 22.6829
C 21.9371 18.0515 26.493
C 22.5941 19.3215 22.7344
C 23.3463 18.0247 26.3317
C 19.823 19.3948 15.6255
C 19.7635 19.3468 19.5865
C 20.5419 20.6545 15.7318
C 21.1753 19.317 19.5894
C 19.7131 19.3007 22.7511
C 19.8075 19.29 26.6082
C 20.4444 20.5615 22.7777
C 21.2216 19.2601 26.5954
C 21.945 25.6051 16.127
C 21.8887 25.5177 19.4607
C 22.6586 26.842 16.1737
C 23.3177 25.5158 19.4614
C 21.8849 25.509 22.7588
C 21.8955 25.4483 26.0655
C 22.5973 26.7437 22.7515
C 23.3242 25.4542 26.0247
C 15.5597 29.3122 15.5917
C 15.4375 29.2729 19.3904
C 16.2465 30.5436 15.6201
C 16.8815 29.2563 19.4636
C 17.6843 28.0821 15.7348
C 17.5979 27.9975 19.4358
C 18.39 29.3122 15.793
C 19.0267 27.9917 19.4723
C 15.5147 29.2263 23.0281
C 15.4291 29.1266 26.2614
C 16.1905 30.4603 22.9245
C 16.8795 29.1396 26.2434
C 17.6328 27.9936 22.9244
C 17.5978 27.9011 26.2391
C 18.3314 29.2224 22.8645
C 19.0266 27.9083 26.1643
C 19.8068 26.8411 15.9928
C 19.7432 26.7543 19.4684
C 20.5192 28.0779 16.0321
C 21.1736 26.7524 19.4619
C 19.7539 26.7481 22.769
C 19.7465 26.6763 26.1331
C 20.4651 27.9849 22.7571
C 21.1749 26.6813 26.0643
C 21.9514 23.1346 16.0119
C 21.8921 23.0464 19.4775
C 22.6611 24.37 16.1155
C 23.3197 23.0456 19.454
C 21.8779 23.0369 22.7911
C 21.9119 22.981 26.2139
C 22.5933 24.2726 22.7752
C 23.3394 22.9865 26.1499
C 15.5538 26.8434 15.6623
C 15.4129 26.7491 19.3541
C 16.2423 28.0827 15.5706
C 16.8799 26.754 19.4106
C 17.6778 25.6017 15.7673
C 17.6007 25.5182 19.464
C 18.3851 26.8401 15.8458
C 19.0334 25.5186 19.4693
C 15.4998 26.7631 22.8657
C 15.4309 26.6736 26.4204
C 16.197 27.9951 23.0384
C 16.8875 26.6733 26.335
C 17.6188 25.5186 22.7266
C 17.6101 25.4376 26.3268
C 18.3308 26.7523 22.8166
C 19.0389 25.4392 26.2198
C 19.8088 24.3652 15.9607
C 19.7488 24.2837 19.4803
C 20.5201 25.6024 16.0412
C 21.1749 24.2831 19.4713
C 19.7462 24.2765 22.7637
C 19.7604 24.2095 26.2507
C 20.4609 25.5095 22.7547
C 21.1883 24.212 26.1633
C 24.083 16.9743 15.81
C 24.0693 16.8763 19.4241
C 24.8306 18.1909 15.8572
C 25.4294 16.8749 19.2577
H 25.9774 15.9296 19.2001
H 26.763 17.2503 16.0155
C 24.1082 19.4325 15.8163
C 24.0437 19.3321 19.4292
C 24.8113 20.667 15.9587
C 25.4565 19.3337 19.2688
C 26.2237 18.2006 15.9645
C 26.1778 18.0907 19.1717
C 26.9564 19.4005 16.0345
C 27.5859 18.1096 19.0898
C 23.9878 16.8753 22.8116
C 24.0915 16.8131 26.2522
C 24.7249 18.0904 22.8782
C 25.49 16.8124 26.2119
H 26.0348 15.8647 26.1703
H 26.6733 17.161 23.0108
C 24.0101 19.3258 22.8241
C 24.0758 19.2756 26.2798
C 24.7235 20.563 22.8404
C 25.5016 19.2773 26.2424
C 26.1299 18.1105 22.9685
C 26.2414 18.0276 26.2486
C 26.8591 19.3116 22.9788
C 27.6453 18.0548 26.3412
H 28.1294 17.1609 19.0476
H 28.1953 17.1087 26.3454
C 30.514 20.6759 16.1057
C 30.4423 20.5551 19.2486
C 31.2241 21.8801 16.0466
C 31.8689 20.5912 19.28
C 30.4022 20.5486 22.5277
C 30.4963 20.5225 26.4883
C 31.1354 21.7576 22.4988
C 31.917 20.5773 26.521
C 24.0888 24.3724 16.1637
C 24.0317 24.2823 19.4534
C 24.8029 25.6081 16.2187
C 25.458 24.2802 19.4449
C 26.231 23.1397 16.1598
C 26.171 23.0435 19.3996
C 26.9468 24.3742 16.1986
C 27.5941 23.0409 19.3843
C 24.0183 24.2702 22.7687
C 24.045 24.2217 26.0605
C 24.7347 25.5041 22.7524
C 25.4735 24.2264 26.0593
C 26.1545 23.0304 22.7669
C 26.1937 22.9921 26.131
C 26.8714 24.2638 22.7451
C 27.6189 22.9976 26.1971
C 28.3818 21.9024 16.1423
C 28.3092 21.8056 19.3084
C 29.0894 23.1342 16.1198
C 29.7321 21.8003 19.32
C 28.2855 21.7921 22.6776
C 28.336 21.7626 26.3166
C 29.0014 23.0181 22.6733
C 29.7719 21.7743 26.4132
H 30.2846 18.4089 19.1013
H 31.0631 19.7304 16.1447
H 30.3328 18.3605 26.4775
H 30.9456 19.6021 22.4586
C 24.0937 21.9054 16.0069
C 24.0347 21.8139 19.4275
C 24.8035 23.1377 16.1233
C 25.4587 21.8112 19.3696
C 26.2275 20.6594 16.0571
C 26.1715 20.5767 19.2672
C 26.9462 21.9015 16.1357
C 27.6002 20.576 19.2152
C 24.0125 21.8015 22.7967
C 24.0605 21.7507 26.1946
C 24.7275 23.0332 22.7829
C 25.4874 21.7523 26.1774
C 26.1401 20.5624 22.8697
C 26.2102 20.5203 26.2444
C 26.8634 21.7935 22.7766
C 27.6304 20.5202 26.3291
C 28.3737 19.4302 16.03
C 28.3263 19.3227 19.1219
C 29.1096 20.6427 16.1151
C 29.7329 19.3536 19.1509
C 28.276 19.3287 22.8192
C 28.3613 19.2611 26.4062
C 28.9986 20.53 22.5898
C 29.7782 19.3032 26.4612
H 32.4116 19.6417 19.2267
H 33.1897 20.9671 16.0828
H 32.471 19.6346 26.5391
H 33.0921 20.8418 22.3479
H 14.968 32.6611 19.6614
H 14.9089 32.5443 26.2867
C 15.561 31.7895 15.5706
C 15.492 31.7035 19.5843
C 16.2413 32.9826 15.5332
C 16.91 31.7235 19.5581
C 17.6748 30.5481 15.6909
C 17.6092 30.4757 19.5268
C 18.3815 31.7762 15.6608
C 19.0411 30.4642 19.5114
H 15.6976 33.9315 15.4962
H 17.1029 33.88 19.5512
C 17.6667 33.0237 15.5579
C 17.6431 32.9285 19.5368
C 18.3863 34.2407 15.5953
C 19.0484 32.9488 19.5049
C 15.5023 31.7003 22.8609
C 15.4522 31.5953 26.2868
C 16.175 32.8986 22.814
C 16.8771 31.6325 26.3638
C 17.6146 30.4619 22.8584
C 17.5915 30.373 26.2889
C 18.3116 31.6942 22.7702
C 19.0267 30.3759 26.2985
H 15.628 33.8468 22.8207
H 17.0582 33.7798 26.5989
C 17.5946 32.9424 22.7869
C 17.6014 32.8314 26.5437
C 18.3105 34.1629 22.8743
C 19.0116 32.8471 26.638
C 21.9447 30.5504 16.0425
C 21.898 30.4518 19.4266
C 22.6542 31.7874 16.0246
C 23.3268 30.4529 19.4257
C 21.8857 30.4539 22.7443
C 21.8799 30.3879 26.1793
C 22.5969 31.6903 22.7528
C 23.3072 30.3986 26.1235
C 19.815 31.7839 15.7871
C 19.7601 31.6874 19.4734
C 20.521 33.0215 15.8045
C 21.1881 31.687 19.3905
C 19.7468 31.6971 22.7521
C 19.7373 31.5995 26.4352
C 20.4553 32.9346 22.8094
C 21.1624 31.6146 26.3468
C 21.9462 28.0783 16.1287
C 21.8905 27.9855 19.4572
C 22.659 29.3134 16.1316
C 23.3189 27.9855 19.4584
C 21.8891 27.9818 22.7449
C 21.8861 27.9196 26.0439
C 22.5996 29.2167 22.7451
C 23.3152 27.9279 26.0066
C 19.8122 29.3132 15.9311
C 19.7487 29.2233 19.4863
C 20.525 30.5481 15.9338
C 21.1754 29.2194 19.4597
C 19.7558 29.2209 22.7738
C 19.7393 29.1442 26.1737
C 20.4626 30.4565 22.7474
C 21.1684 29.1514 26.1201
C 21.9112 35.511 15.9475
C 21.9291 35.366 19.117
C 22.6662 36.724 16.0237
C 23.3323 35.393 19.2624
C 21.8791 35.4273 22.9274
C 21.8587 35.2964 26.6805
C 22.6335 36.6361 22.87
C 23.2644 35.3234 26.7181
H 19.9645 36.4342 15.7955
H 21.3864 36.3125 19.0157
H 19.9209 36.3585 23.0837
H 21.3077 36.2387 26.7694
C 21.9396 33.0191 15.937
C 21.9136 32.9149 19.2832
C 22.6506 34.26 15.9663
C 23.3329 32.9196 19.3441
C 21.8859 32.9276 22.8042
C 21.8735 32.8465 26.4465
C 22.6068 34.1711 22.8231
C 23.2895 32.8564 26.3913
H 17.8327 35.184 15.5663
H 17.7575 35.1048 22.9391
C 19.7968 34.2805 15.7112
C 19.7787 34.1466 19.2618
C 20.5135 35.4878 15.81
C 21.1976 34.1621 19.1236
C 19.7217 34.2008 22.9029
C 19.7382 34.0531 26.6571
C 20.4612 35.41 22.999
C 21.1441 34.0871 26.6007
C 32.6491 21.914 15.9933
C 32.5506 21.777 19.3786
C 33.3348 23.0933 15.8384
H 33.6442 21.7873 19.4096
C 32.652 24.3434 15.7623
C 32.5512 24.2472 19.5927
C 33.3457 25.5778 15.6756
H 33.644 24.2359 19.6656
H 34.4284 23.0995 15.7958
C 32.5575 21.788 22.4543
C 32.5978 21.7867 26.5766
C 33.2651 22.9809 22.5642
H 33.6909 21.8033 26.6365
C 32.6027 24.239 22.6304
C 32.5846 24.2766 26.5373
C 33.3002 25.4746 22.6602
H 33.6778 24.2882 26.6053
H 34.358 22.9799 22.5162
C 32.7025 29.3117 15.8795
C 32.5658 29.2078 19.6463
C 33.3704 30.5643 16.0024
H 33.6579 29.2091 19.7299
H 34.4707 28.0598 15.6424
C 32.6062 29.2005 22.6273
C 32.5777 29.1967 26.3638
C 33.2832 30.4503 22.6757
H 33.6713 29.1891 26.405
H 34.3939 27.9711 22.5792
C 32.6846 26.8242 15.7458
C 32.5729 26.7304 19.592
C 33.3805 28.0654 15.7353
H 34.4356 25.5625 15.5792
C 32.6242 26.7221 22.6351
C 32.5672 26.7379 26.4505
C 33.3003 27.9634 22.6164
H 34.3931 25.4688 22.6118
H 22.1225 37.6718 16.0666
H 23.5106 37.5498 19.2651
H 22.0931 37.5853 22.9215
H 23.4455 37.4865 26.8049
C 24.0646 36.7195 16.0235
C 24.0649 36.6092 19.3385
H 24.6139 37.664 16.0711
C 25.4303 36.6213 19.5059
C 26.2235 35.4781 15.829
C 26.1796 35.4129 19.5899
H 26.7728 36.4247 15.8082
C 27.5959 35.3966 19.6508
H 25.9706 37.5711 19.5656
C 24.019 36.6189 22.7414
C 24.0034 36.5477 26.7376
H 24.5719 37.5594 22.6871
C 25.3828 36.5612 26.6739
C 26.1673 35.3671 22.6515
C 26.1339 35.3583 26.6044
H 26.7149 36.3116 22.5917
C 27.5529 35.3551 26.5528
H 25.9305 37.5081 26.6918
H 30.3091 35.0896 19.7481
H 30.2676 35.0998 26.5307
H 28.1352 36.3471 19.6996
H 28.08 36.3128 26.604
C 30.5015 33.0199 15.8766
C 30.4753 32.9286 19.6896
H 31.0461 33.9687 15.8405
C 31.8974 32.8839 19.6573
C 30.4318 32.8681 22.699
C 30.4645 32.939 26.284
H 30.9868 33.8184 22.6603
C 31.8822 32.8954 26.1586
C 28.357 34.2391 15.7891
C 28.3387 34.1885 19.6597
C 29.7546 34.1483 19.6915
C 28.2962 34.1192 22.7051
C 28.302 34.1619 26.4751
C 29.7251 34.1492 26.4708
C 32.6584 31.7762 16.0693
C 32.5713 31.6864 19.6134
H 33.2019 32.7208 16.1506
H 33.6648 31.6718 19.603
H 34.4638 30.5716 16.0371
H 32.4462 33.8309 19.6814
C 32.5823 31.6321 22.7435
C 32.5804 31.6763 26.1299
H 33.1153 32.5864 22.7652
H 33.6717 31.6673 26.0638
H 34.3785 30.4511 22.6266
H 32.4362 33.8387 26.1127
H 33.6603 26.7414 26.5107
H 19.2637 18.3438 26.6895
H 19.1916 34.9983 26.7428
H 14.4015 26.7744 22.8314
H 28.8506 35.059 22.5783
H 33.655 26.7265 19.7629
H 28.8202 18.3789 22.8277
H 19.2153 18.4005 19.6417
H 19.2348 35.0957 19.2038
H 28.9031 35.187 15.7331
H 14.4597 26.8482 15.6141
H 28.9189 18.4827 16.026
Li 16.9474 21.9386 13.9736
Li 16.1242 25.3325 17.6293
Li 31.2436 31.6879 27.94
Li 19.0235 20.4227 17.5703
Li 31.9899 30.6662 14.2592
Li 22.5007 19.1883 17.705
Li 16.1066 30.3293 28.027
Li 18.9531 32.9157 24.6214
Li 24.8464 17.9896 28.0106
Li 15.9796 25.4266 24.6372
Li 27.7291 20.6837 14.3378
Li 18.8906 20.5109 24.6395
Li 23.3557 35.5675 14.2334
Li 18.8372 33.0804 17.4849
Li 16.1298 28.2315 17.5708
Li 21.2948 19.123 24.5501
Li 29.1965 20.3972 24.5997
Li 32.0362 25.4249 24.5013
Li 23.455 35.4263 24.6398
Li 26.782 34.3703 24.6512
Li 26.9083 34.3795 17.7805
Li 21.0566 34.4784 21.1006
Li 32.0263 28.1358 24.4445
Li 26.9926 19.1765 20.9685
Li 16.3252 22.2848 24.6454
Li 32.2121 25.4282 17.644
Li 29.3113 32.955 17.8255
Li 32.3615 28.1091 17.6802
Li 31.8578 22.4847 24.4676
Li 15.4059 28.1031 21.1686
Li 29.529 33.8462 24.444
Li 29.8937 19.9733 20.8992
Li 16.0051 31.8778 17.5923
