606
592nano.out 0 0 0
C 24.0554 26.8321 16.2861
C 24.0562 26.7912 19.4985
C 24.7617 28.0669 16.2625
C 25.4791 26.7869 19.4928
C 26.197 25.6064 16.2748
C 26.1875 25.5521 19.4822
C 26.9028 26.8411 16.2556
C 27.6109 25.5479 19.4597
C 24.0444 29.2954 16.2202
C 24.0619 29.2548 19.4973
C 24.7525 30.5305 16.1417
C 25.4846 29.2499 19.5013
C 26.187 28.0705 16.2438
C 26.1927 28.0159 19.4935
C 26.8946 29.3041 16.1709
C 27.6179 28.0104 19.4872
C 24.0411 26.705 22.748
C 24.0077 26.6718 25.9526
C 24.7536 27.9366 22.7593
C 25.4318 26.6764 25.9753
C 26.1748 25.4739 22.7361
C 26.1489 25.4469 25.9933
C 26.8868 26.7056 22.7425
C 27.5734 25.4521 26.0672
C 24.0431 29.1696 22.7737
C 23.9976 29.1373 25.9907
C 24.7563 30.4021 22.7907
C 25.4203 29.1426 26.0122
C 26.1765 27.9369 22.7624
C 26.1375 27.9132 26.0075
C 26.8889 29.1709 22.7876
C 27.5604 27.9206 26.0749
C 30.4703 25.6163 16.1847
C 30.4563 25.5352 19.3979
C 31.177 26.8471 16.1443
C 31.8948 25.533 19.3588
C 30.4461 25.4814 22.6187
C 30.4129 25.4663 26.3135
C 31.1607 26.7115 22.5915
C 31.8538 25.4784 26.4331
C 28.3276 26.8439 16.2207
C 28.3252 26.7768 19.4613
C 29.0344 28.0751 16.1572
C 29.7515 26.7713 19.4337
C 28.3119 26.7074 22.7215
C 28.2774 26.6896 26.1203
C 29.021 27.9404 22.7326
C 29.6968 26.6988 26.2506
C 30.4812 23.1585 16.1806
C 30.4476 23.0703 19.3717
C 31.1839 24.3841 16.1713
C 31.885 23.0763 19.3423
C 30.4505 23.0149 22.5757
C 30.4213 22.9905 26.361
C 31.1618 24.2463 22.5656
C 31.8538 23.0086 26.5152
C 28.3381 24.381 16.2326
C 28.3179 24.3131 19.4319
C 29.0438 25.6133 16.2182
C 29.7439 24.3091 19.4004
C 28.3098 24.2415 22.6865
C 28.2882 24.2216 26.1241
C 29.024 25.4767 22.6815
C 29.7101 24.2312 26.2542
C 30.4555 30.5245 15.8999
C 30.4737 30.4614 19.5856
C 31.16 31.7685 15.7184
C 31.919 30.4413 19.578
C 30.447 30.4102 22.804
C 30.3893 30.4143 26.2263
C 31.1553 31.6558 22.8674
C 31.8205 30.4162 26.2982
C 24.0244 34.2235 15.8896
C 24.0774 34.1907 19.5394
C 24.7427 35.4613 15.8464
C 25.4951 34.1893 19.5653
C 26.1633 32.9906 15.8856
C 26.2106 32.946 19.5839
C 26.8817 34.2408 15.7276
C 27.6374 32.9403 19.6364
C 24.0379 34.1005 22.7131
C 23.9733 34.0577 26.3525
C 24.7706 35.3401 22.5992
C 25.3948 34.0642 26.359
C 26.179 32.869 22.795
C 26.1175 32.84 26.2203
C 26.9052 34.1156 22.7914
C 27.5375 32.8532 26.2062
C 28.3139 31.7618 15.9194
C 28.3399 31.7032 19.6053
C 29.0275 33.0106 15.7885
C 29.7686 31.6951 19.6476
C 28.313 31.6373 22.8515
C 28.2531 31.6284 26.1482
C 29.0298 32.8853 22.8897
C 29.6763 31.6364 26.1786
C 30.4624 28.0732 16.113
C 30.4661 27.9993 19.451
C 31.1706 29.3027 16.0008
C 31.9084 27.99 19.421
C 30.4474 27.9445 22.6665
C 30.3959 27.9443 26.3215
C 31.1591 29.1898 22.6983
C 31.8327 27.954 26.4912
C 24.0348 31.7559 16.0601
C 24.0674 31.7191 19.5216
C 24.7429 32.991 15.9497
C 25.4926 31.7133 19.5332
C 26.1784 30.5334 16.1115
C 26.2004 30.4807 19.5237
C 26.8872 31.7635 15.9797
C 27.6249 30.4746 19.5445
C 24.0449 31.6344 22.7902
C 23.9853 31.601 26.1139
C 24.7601 32.8677 22.7674
C 25.4081 31.6073 26.1267
C 26.1775 30.4029 22.8026
C 26.1262 30.3794 26.0659
C 26.8905 31.6377 22.824
C 27.5471 30.3879 26.0983
C 28.3181 29.304 16.1177
C 28.3326 29.2381 19.5133
C 29.0251 30.5363 15.986
C 29.7585 29.2287 19.5094
C 28.3103 29.1725 22.7837
C 28.2629 29.1589 26.1156
C 29.0229 30.409 22.8208
C 29.6865 29.1701 26.2181
H 14.467 21.8289 16.0899
H 14.9552 20.9659 19.2998
H 14.4274 21.7717 22.3437
H 14.9324 20.8 26.4608
H 22.1665 16.0389 15.5735
C 22.7132 16.9829 15.6528
H 23.5278 15.9945 19.7742
H 22.0915 15.9051 22.8656
C 22.6449 16.8494 22.8461
H 23.5112 15.8692 26.0507
H 15.7123 19.7112 15.7682
C 16.2419 20.6657 15.8397
H 17.0752 19.7319 19.5489
H 17.8597 18.5073 15.51
C 18.4026 19.4509 15.6186
H 15.6501 19.627 22.414
C 16.1994 20.5714 22.468
H 17.0927 19.5544 26.5508
H 17.8047 18.3669 22.4819
C 18.3496 19.3126 22.551
H 20.0169 17.2765 15.4621
C 20.5578 18.2197 15.5837
H 21.3742 17.2361 19.7631
H 19.9637 17.1277 22.6536
C 20.5031 18.0792 22.6987
H 21.3803 17.0989 26.1937
H 24.6401 16.0383 15.7281
H 24.5691 15.9132 22.9014
H 13.7219 25.5767 19.2823
C 14.8171 25.5772 19.3096
H 13.6852 25.4308 26.6334
C 14.7752 25.4329 26.5443
H 13.7197 23.1106 19.2151
H 14.4451 24.2987 16.1558
C 14.813 23.1023 19.2724
H 13.6901 22.9449 26.5066
H 14.4205 24.2522 22.3907
C 14.7834 22.9468 26.4868
H 13.7313 30.5138 19.5319
H 14.4026 31.7138 15.7895
C 14.8257 30.5156 19.5489
H 13.673 30.389 26.3852
H 14.4385 31.669 22.8592
C 14.7651 30.3955 26.3245
H 13.7245 28.0477 19.3662
H 14.4082 29.2381 15.9941
C 14.8198 28.0461 19.3796
H 13.6881 27.9188 26.6262
H 14.4366 29.2186 22.5517
C 14.7763 27.9137 26.518
C 15.5574 21.8365 16.009
C 15.4939 21.9175 19.3139
C 16.2288 23.102 16.0747
C 16.923 21.8779 19.3996
C 17.6741 20.6449 15.763
C 17.6297 20.6748 19.5068
C 18.3791 21.8938 15.9161
C 19.0461 20.6332 19.6154
C 15.5392 24.3095 16.1363
C 15.4967 24.3594 19.3082
C 16.2086 25.5559 16.144
C 16.933 24.3472 19.3593
C 17.6646 23.1068 16.0572
C 17.6369 23.1204 19.4033
C 18.3679 24.3431 16.1433
C 19.0634 23.11 19.4631
C 15.5182 21.764 22.4311
C 15.4784 21.7475 26.4596
C 16.1978 23.0266 22.4621
C 16.909 21.7062 26.4381
C 17.6274 20.5232 22.5332
C 17.6356 20.5014 26.4743
C 18.3367 21.7779 22.6137
C 19.0558 20.4757 26.4716
C 15.5094 24.2533 22.4994
C 15.459 24.208 26.4825
C 16.1897 25.4917 22.5532
C 16.9014 24.1946 26.3739
C 17.6308 23.0118 22.5945
C 17.6142 22.9634 26.3564
C 18.3409 24.2517 22.6641
C 19.0456 22.9607 26.2542
C 21.9585 20.6731 15.9281
C 21.9095 20.6333 19.5565
C 22.6603 21.9003 16.0889
C 23.3303 20.631 19.5432
C 21.9062 20.5399 22.7749
C 21.9062 20.4986 26.1593
C 22.6157 21.7775 22.7827
C 23.3206 20.5026 26.0754
C 19.8151 21.895 15.9468
C 19.7715 21.8797 19.5327
C 20.5188 23.1256 16.1132
C 21.1986 21.8682 19.5246
C 19.7696 21.7749 22.6905
C 19.7653 21.7337 26.2999
C 20.4792 23.0116 22.7432
C 21.1844 21.7303 26.1691
C 21.955 18.2026 15.676
C 21.9192 18.18 19.6667
C 22.68 19.4427 15.8335
C 23.3239 18.1609 19.7102
C 21.8964 18.0686 22.7932
C 21.9244 18.0483 26.1717
C 22.6195 19.3082 22.8066
C 23.318 18.0324 26.1039
C 19.8241 19.4213 15.6467
C 19.773 19.418 19.6006
C 20.5378 20.6699 15.8295
C 21.1842 19.388 19.5992
C 19.7684 19.2807 22.6364
C 19.7874 19.2739 26.3851
C 20.4856 20.5371 22.7035
C 21.1938 19.2516 26.2413
C 21.9259 25.5901 16.2621
C 21.9199 25.5653 19.4908
C 22.6313 26.8262 16.2772
C 23.3425 25.561 19.4997
C 21.9048 25.4748 22.7529
C 21.8764 25.433 25.9805
C 22.6176 26.7055 22.7489
C 23.2999 25.4367 25.9574
C 15.5027 29.2415 16.0033
C 15.5038 29.2595 19.4578
C 16.1794 30.4602 15.8994
C 16.9409 29.2687 19.4802
C 17.6354 28.0271 16.1232
C 17.6513 28.0354 19.4285
C 18.3425 29.2559 16.0762
C 19.0785 28.0356 19.455
C 15.5295 29.2096 22.6152
C 15.4537 29.138 26.3888
C 16.214 30.4216 22.7572
C 16.8894 29.1434 26.2524
C 17.6434 27.9584 22.6318
C 17.6037 27.8968 26.2293
C 18.3521 29.1848 22.7235
C 19.0248 27.8949 26.0857
C 19.7805 26.8116 16.2194
C 19.787 26.803 19.4536
C 20.4865 28.0463 16.2141
C 21.2113 26.7995 19.4798
C 19.7704 26.7111 22.7152
C 19.7359 26.6621 26.0524
C 20.4845 27.9426 22.7371
C 21.1601 26.6641 25.9841
C 21.9404 23.1281 16.1623
C 21.9135 23.1005 19.4975
C 22.6446 24.3627 16.2436
C 23.3363 23.0963 19.496
C 21.9026 23.0089 22.7681
C 21.8873 22.9672 26.059
C 22.6159 24.2419 22.762
C 23.3114 22.9706 26.0042
C 15.5198 26.7779 16.1256
C 15.4984 26.811 19.3487
C 16.1904 28.0122 16.0874
C 16.9382 26.8091 19.3809
C 17.6503 25.5639 16.1653
C 17.6465 25.5781 19.3877
C 18.3538 26.8014 16.1791
C 19.073 25.5739 19.4319
C 15.5145 26.7286 22.5063
C 15.4543 26.6625 26.495
C 16.2044 27.9648 22.5128
C 16.8979 26.6622 26.3381
C 17.6323 25.4837 22.6295
C 17.6116 25.4313 26.2707
C 18.3462 26.7151 22.6609
C 19.029 25.4289 26.1347
C 19.7966 24.3503 16.1754
C 19.7817 24.3415 19.4582
C 20.5004 25.5837 16.2325
C 21.205 24.3348 19.4847
C 19.7666 24.246 22.726
C 19.7469 24.1943 26.128
C 20.4793 25.4768 22.7388
C 21.169 24.1965 26.0449
C 24.0907 16.9835 15.7368
C 24.0786 16.9364 19.6881
C 24.8422 18.2034 15.8566
C 25.4466 16.9372 19.579
H 25.9932 15.9891 19.5652
H 26.7842 17.2782 15.926
C 24.1009 19.4453 15.9153
C 24.0534 19.3969 19.5888
C 24.8073 20.6772 16.0648
C 25.4715 19.3915 19.5172
C 26.2355 18.2243 15.9541
C 26.1997 18.1522 19.509
C 26.9577 19.4336 16.0613
C 27.6012 18.1688 19.4469
C 24.0118 16.8537 22.867
C 24.0671 16.8111 26.0812
C 24.7594 18.0741 22.8263
C 25.4334 16.8093 26.1126
H 25.9874 15.8655 26.1136
H 26.6965 17.1425 22.7416
C 24.0351 19.3108 22.8176
C 24.0391 19.2713 26.0788
C 24.7514 20.542 22.7849
C 25.454 19.272 26.0963
C 26.1528 18.0921 22.7621
C 26.1781 18.0324 26.1592
C 26.8836 19.294 22.6923
C 27.5664 18.0492 26.2981
H 28.1383 17.2147 19.437
H 28.1109 17.1027 26.3724
C 30.4935 20.7141 16.1611
C 30.4483 20.596 19.3518
C 31.1975 21.9112 16.1591
C 31.883 20.6311 19.3361
C 30.44 20.556 22.4996
C 30.4267 20.5074 26.4996
C 31.161 21.7626 22.5316
C 31.8543 20.5549 26.5522
C 24.0685 24.3675 16.2613
C 24.0509 24.327 19.4958
C 24.7731 25.6018 16.2844
C 25.4736 24.3228 19.485
C 26.2097 23.1418 16.2285
C 26.1823 23.0879 19.4659
C 26.9141 24.3761 16.2537
C 27.6049 23.0843 19.4334
C 24.0388 24.2409 22.7549
C 24.0182 24.2061 25.9676
C 24.7521 25.4732 22.7439
C 25.4419 24.211 25.9794
C 26.1745 23.009 22.7306
C 26.1588 22.9786 26.0166
C 26.8873 24.24 22.7206
C 27.5813 22.9828 26.0911
C 28.353 21.9176 16.188
C 28.3153 21.8477 19.402
C 29.0562 23.1485 16.2047
C 29.7392 21.8474 19.3724
C 28.3053 21.7797 22.6159
C 28.2919 21.7471 26.2004
C 29.0182 23.008 22.6332
C 29.7174 21.7542 26.3443
H 30.279 18.4514 19.3596
H 31.0458 19.7693 16.1596
H 30.253 18.3519 26.6453
H 30.9872 19.6159 22.375
C 24.0843 21.9044 16.1376
C 24.0462 21.8629 19.502
C 24.7873 23.1374 16.2214
C 25.4688 21.8588 19.4787
C 26.2266 20.6775 16.1105
C 26.183 20.6232 19.4638
C 26.93 21.9097 16.1843
C 27.6028 20.6194 19.4144
C 24.0384 21.7782 22.7814
C 24.0284 21.741 26.0214
C 24.7505 23.0087 22.7595
C 25.4505 21.7435 26.0238
C 26.1679 20.5402 22.7278
C 26.1638 20.5065 26.0887
C 26.8844 21.7738 22.6941
C 27.5809 20.5087 26.2057
C 28.3621 19.467 16.1129
C 28.3224 19.3736 19.3985
C 29.0765 20.6734 16.1568
C 29.7348 19.4018 19.364
C 28.2926 19.3191 22.5729
C 28.2934 19.2569 26.369
C 29.0197 20.526 22.5001
C 29.7062 19.2924 26.5276
H 32.4223 19.6783 19.3258
H 33.1729 21.0019 16.1425
H 32.4006 19.6083 26.5935
H 33.1338 20.8572 22.4969
H 14.9673 32.6417 19.7947
H 14.9055 32.5203 26.1232
C 15.4963 31.7191 15.7867
C 15.5086 31.6966 19.6921
C 16.1815 32.9142 15.6995
C 16.9454 31.7362 19.7268
C 17.6263 30.4845 15.937
C 17.652 30.4905 19.5808
C 18.332 31.7172 15.8536
C 19.0826 30.5009 19.5477
H 15.6343 33.8586 15.6286
H 17.1149 33.8864 19.8203
C 17.6182 32.9671 15.7207
C 17.6631 32.9447 19.7191
C 18.3246 34.1741 15.669
C 19.076 32.9792 19.6615
C 15.5323 31.677 22.8586
C 15.4465 31.5713 26.1837
C 16.2177 32.8576 22.9325
C 16.8776 31.6113 26.1264
C 17.6469 30.4247 22.7814
C 17.5918 30.3661 26.1334
C 18.3562 31.6469 22.8553
C 19.0139 30.3661 26.0643
H 15.6776 33.8075 22.9971
H 17.036 33.7559 26.0733
C 17.6484 32.8947 22.916
C 17.5847 32.8092 26.0851
C 18.3637 34.0934 22.9337
C 18.9966 32.8419 26.0955
C 21.9011 30.5171 16.1237
C 21.9279 30.4943 19.5127
C 22.6086 31.7483 16.0479
C 23.3524 30.4913 19.5064
C 21.9108 30.4052 22.7908
C 21.8581 30.3656 26.0232
C 22.623 31.6366 22.8006
C 23.2797 30.3681 26.0329
C 19.7609 31.7307 15.933
C 19.7915 31.7283 19.5922
C 20.4634 32.9661 15.8487
C 21.2177 31.7287 19.5633
C 19.7793 31.6456 22.8426
C 19.7183 31.5956 26.0654
C 20.49 32.8746 22.8625
C 21.1405 31.5984 26.0713
C 21.9132 28.0546 16.2483
C 21.9243 28.0289 19.4864
C 22.6197 29.2887 16.2123
C 23.3481 28.0252 19.4944
C 21.908 27.9397 22.7512
C 21.8667 27.8984 25.9673
C 22.6209 29.1706 22.7689
C 23.2907 27.9023 25.9605
C 19.7689 29.2707 16.1328
C 19.7924 29.265 19.4904
C 20.476 30.5074 16.0731
C 21.2151 29.2638 19.4911
C 19.7779 29.1782 22.7564
C 19.7296 29.1298 26.034
C 20.4895 30.4082 22.7977
C 21.1506 29.1314 25.9938
C 21.8772 35.4591 15.784
C 21.9591 35.4166 19.6066
C 22.623 36.6786 15.8268
C 23.3594 35.4286 19.5298
C 21.8946 35.3451 22.7984
C 21.839 35.2797 26.3578
C 22.6461 36.5634 22.7273
C 23.2297 35.2968 26.455
H 19.9193 36.3772 15.6748
H 21.4202 36.3687 19.6457
H 19.9588 36.2787 22.8842
H 21.2884 36.2245 26.4005
C 21.8903 32.976 15.916
C 21.9388 32.9584 19.5998
C 22.6061 34.2196 15.8604
C 23.3581 32.9574 19.5486
C 21.9097 32.8716 22.824
C 21.8456 32.8293 26.1587
C 22.6232 34.1045 22.7805
C 23.2628 32.8279 26.2012
H 17.7705 35.1135 15.5853
H 17.8163 35.0414 22.9672
C 19.7347 34.2155 15.7227
C 19.8057 34.1854 19.6864
C 20.4661 35.4312 15.7225
C 21.2193 34.2105 19.697
C 19.7715 34.1212 22.8976
C 19.7148 34.0467 26.1538
C 20.5034 35.329 22.8694
C 21.1151 34.0731 26.2199
C 32.634 21.954 16.1416
C 32.5649 21.812 19.3267
C 33.313 23.1364 16.1307
H 33.6584 21.822 19.307
C 32.6236 24.3963 16.143
C 32.5668 24.2863 19.3288
C 33.3002 25.6108 16.1235
H 33.6604 24.2829 19.2964
H 34.4075 23.1505 16.1179
C 32.5913 21.8058 22.5168
C 32.5373 21.7489 26.5458
C 33.2848 23.0016 22.5089
H 33.6308 21.7555 26.5847
C 32.606 24.2624 22.5086
C 32.5384 24.2414 26.4822
C 33.2914 25.4838 22.4879
H 33.6286 24.2459 26.5805
H 34.3785 23.0027 22.489
C 32.608 29.2956 15.9782
C 32.594 29.2231 19.4751
C 33.2843 30.5509 15.8689
H 33.6881 29.2215 19.4629
H 34.3899 28.0843 16.0372
C 32.6003 29.1859 22.6385
C 32.5072 29.2005 26.4228
C 33.2791 30.4445 22.7367
H 33.6006 29.2117 26.4899
H 34.3815 27.9669 22.5158
C 32.6164 26.849 16.1126
C 32.5796 26.7569 19.3613
C 33.2948 28.0802 16.0513
H 34.3952 25.6139 16.1043
C 32.6101 26.7139 22.516
C 32.5252 26.7178 26.4938
C 33.2877 27.9625 22.5488
H 34.3847 25.4805 22.4376
H 22.0702 37.6225 15.8238
H 23.5566 37.5863 19.4313
H 22.0969 37.51 22.7452
H 23.4284 37.4581 26.6565
C 23.9934 36.6771 15.8607
C 24.1093 36.6431 19.4733
H 24.5453 37.6213 15.8871
C 25.4791 36.6473 19.499
C 26.1453 35.4468 15.7849
C 26.2254 35.4308 19.5846
H 26.6866 36.3974 15.7394
C 27.6346 35.4065 19.6491
H 26.0302 37.5923 19.4754
C 24.0119 36.5661 22.611
C 23.9828 36.5177 26.5906
H 24.5618 37.5086 22.5333
C 25.3603 36.5235 26.5944
C 26.1679 35.3247 22.6892
C 26.1252 35.3093 26.4666
H 26.7133 36.2722 22.6398
C 27.5192 35.303 26.3976
H 25.9064 37.4681 26.6697
H 30.3292 35.0971 19.7945
H 30.2042 35.0346 26.2627
H 28.1805 36.3542 19.661
H 28.0606 36.2528 26.4574
C 30.4412 32.9768 15.7199
C 30.482 32.9487 19.7275
H 30.9878 33.9192 15.6136
C 31.9185 32.8976 19.7329
C 30.442 32.8514 22.9196
C 30.3816 32.8876 26.1958
H 30.9893 33.7978 22.9631
C 31.8128 32.8567 26.2014
C 28.2985 34.2154 15.7329
C 28.3663 34.1928 19.6998
C 29.7759 34.1549 19.7428
C 28.3047 34.0903 22.8647
C 28.2535 34.1028 26.2736
C 29.6612 34.0841 26.2351
C 32.5975 31.7325 15.7356
C 32.602 31.7028 19.6622
H 33.1362 32.6808 15.6414
H 33.6953 31.6956 19.6593
H 34.3789 30.5513 15.8825
H 32.4663 33.8425 19.7899
C 32.5874 31.6176 22.8509
C 32.5014 31.6754 26.2486
H 33.1233 32.5685 22.9193
H 33.5956 31.67 26.2615
H 34.3733 30.4436 22.7117
H 32.3495 33.8106 26.1787
H 33.616 26.7285 26.5902
H 19.2497 18.3234 26.458
H 19.1639 34.9917 26.1738
H 14.4262 26.735 22.395
H 28.8522 35.0373 22.8719
H 33.6732 26.752 19.3326
H 28.8326 18.3713 22.473
H 19.2229 18.4747 19.6691
H 19.263 35.1319 19.7701
H 28.8409 35.161 15.6362
H 14.4254 26.7701 16.1221
H 28.9143 18.5223 16.0995
Li 31.1955 31.8039 17.8051
Li 16.0753 22.9812 24.5621
Li 23.3182 18.0846 17.636
Li 24.6601 35.4603 24.6481
Li 31.9323 23.0562 24.4038
Li 16.8734 31.8557 17.6579
Li 27.0517 34.2507 17.7829
Li 21.057 34.3661 17.6455
Li 32.0229 27.8634 24.4418
Li 15.9588 27.8364 24.5489
Li 18.9264 20.4053 24.4364
Li 29.3099 20.0911 24.5224
Li 19.0462 20.4087 17.5922
Li 26.9837 18.2537 17.7246
