616
592nano.out 0 0 0
C 22.6758 21.909 16.8204
C 20.5316 23.1306 16.8675
C 21.9693 20.6698 16.7058
C 24.0984 21.916 16.8167
C 19.8275 21.89 16.758
C 19.8131 24.3593 16.9042
C 29.0624 25.636 16.6466
C 29.0529 28.1069 16.6149
C 28.359 24.4014 16.7144
C 20.4792 30.5382 16.8463
C 22.6064 31.7896 16.7975
C 19.7792 29.3005 16.8845
C 28.3372 29.3409 16.643
C 24.0328 31.7995 16.7671
C 24.8164 20.6828 16.709
C 21.9574 23.1392 16.8975
C 18.3846 24.351 16.8386
C 26.9454 21.9232 16.7323
C 28.3504 26.8728 16.715
C 18.3672 26.8203 16.8792
C 21.9074 30.5516 16.8764
C 20.5462 20.6629 16.673
C 29.0728 23.1647 16.6313
C 26.2299 23.1596 16.8252
C 19.7975 26.8308 16.9423
C 26.192 30.5798 16.7519
C 18.3501 29.2879 16.8183
C 30.4823 25.6378 16.4786
C 26.8868 31.8121 16.5687
C 30.4755 28.1031 16.4405
C 19.7543 31.7675 16.7458
C 29.0374 30.576 16.4672
C 26.9146 29.3438 16.7746
C 24.763 30.5725 16.8334
C 21.8753 33.0195 16.7004
C 24.729 33.0387 16.5972
C 24.8064 23.1539 16.8752
C 26.9359 24.3961 16.8232
C 20.5167 25.6007 16.9569
C 20.5005 28.07 16.9458
C 26.2381 20.6885 16.6815
C 17.667 25.5801 16.8345
C 22.6893 19.443 16.5851
C 28.3671 21.9302 16.6539
C 18.4027 21.8857 16.6922
C 17.6497 28.0498 16.8222
C 24.1071 19.4492 16.5958
C 17.6862 23.1095 16.7394
C 31.1839 26.8711 16.3689
C 28.312 31.7999 16.4058
C 26.1479 33.0385 16.4752
C 20.4522 33.0061 16.677
C 26.9274 26.8705 16.8389
C 22.6329 29.3221 16.9369
C 22.6631 24.3781 16.9544
C 30.4936 23.1737 16.4953
C 31.193 24.4024 16.4074
C 17.633 30.5177 16.7192
C 18.3288 31.7508 16.6829
C 31.1784 29.3342 16.3042
C 26.2107 28.1054 16.8708
C 24.0609 29.3325 16.9229
C 30.4628 30.563 16.3054
C 26.2211 25.6314 16.8856
C 21.9289 28.0814 16.9712
C 22.5702 34.2583 16.5767
C 21.9441 25.6103 16.9816
C 24.0893 24.3868 16.9409
C 23.9909 34.2669 16.5047
C 19.8379 19.4186 16.5255
C 24.7829 28.0992 16.9383
C 22.65 26.8503 16.9876
C 24.7963 25.626 16.9469
C 21.971 18.2033 16.4364
C 17.7019 20.6332 16.5569
C 26.9634 19.4467 16.5691
C 29.0884 20.6849 16.5601
C 16.2269 25.5731 16.7467
C 24.8393 18.2137 16.4656
C 16.2102 28.0363 16.7345
C 16.2469 23.1105 16.6552
C 24.0779 26.8603 16.9725
C 32.614 26.8708 16.1861
C 20.5749 18.2145 16.415
C 18.4229 19.4393 16.4814
C 19.7223 34.2449 16.5637
C 31.2094 21.9245 16.4249
C 29.0079 33.026 16.1094
C 26.8321 34.2739 16.1831
C 32.6262 24.4145 16.2459
C 16.1943 30.4951 16.6354
C 32.6052 29.324 16.1253
C 17.6086 32.9941 16.5703
C 21.8341 35.4914 16.4777
C 31.162 31.7906 16.0889
C 24.681 35.5012 16.2842
C 26.2326 18.233 16.4772
C 15.5565 24.3212 16.6778
C 33.299 25.6289 16.138
C 28.3704 19.4752 16.5384
C 33.2911 28.1012 16.0803
C 30.5063 20.7237 16.4785
C 15.5373 26.8 16.7168
C 22.7242 16.9826 16.3093
C 18.3047 34.1995 16.525
C 20.4319 35.4605 16.4908
C 15.5217 29.2763 16.6566
C 16.263 20.6625 16.4936
C 24.0962 16.9886 16.3261
C 15.5721 21.841 16.5432
C 30.4163 32.9897 15.9792
C 28.2797 34.2752 16.133
C 26.0874 35.473 16.1105
H 20.0319 17.2616 16.2978
H 17.8815 18.4844 16.368
C 33.32 23.1524 16.2087
C 32.6443 21.9659 16.299
C 33.2848 30.5773 15.9937
C 15.498 31.7513 16.5355
C 16.1709 32.944 16.5061
C 32.5868 31.7641 15.9674
C 22.5636 36.7187 16.3425
C 23.9348 36.7203 16.2309
H 34.3866 28.1002 15.9482
H 34.3954 25.6318 16.0152
H 26.7897 17.2845 16.395
H 22.1707 16.0369 16.1967
H 15.7278 19.7022 16.3954
H 14.4548 24.3147 16.623
H 19.8769 36.4113 16.4137
H 17.7473 35.1477 16.4409
H 31.0579 19.7697 16.4312
H 14.4204 29.2682 16.602
H 24.6639 16.0491 16.2339
H 28.9248 18.5239 16.4736
H 14.4706 21.8432 16.4911
H 14.4359 26.7933 16.661
H 30.9492 33.9228 15.7107
H 26.6054 36.4074 15.8126
H 34.4172 23.1674 16.105
H 33.1857 21.0067 16.2708
H 28.7633 35.1422 15.6377
H 34.382 30.5709 15.8902
H 15.6208 33.8943 16.4277
H 14.3984 31.7307 16.4857
H 22.0058 37.6693 16.3011
H 33.1146 32.7225 15.8388
H 24.4859 37.6668 16.0943
C 23.3608 20.626 19.8341
C 19.0776 23.1005 19.9243
C 21.2199 21.8578 19.9135
C 21.9389 20.6283 19.8103
C 26.2174 20.6249 19.7373
C 19.7915 21.8709 19.8607
C 25.5059 21.8622 19.8775
C 28.3707 21.8526 19.737
C 24.0779 21.8615 19.9233
C 27.6618 23.0911 19.8461
C 19.0775 25.5782 20.0228
C 19.7903 24.3386 20.0132
C 24.0651 19.3866 19.7099
C 19.0757 28.053 20.0335
C 17.6479 25.5792 19.94
C 28.372 24.3298 19.8278
C 27.6479 20.6135 19.6749
C 17.6485 28.0525 19.9494
C 29.7959 24.3285 19.6718
C 17.6433 23.1006 19.8402
C 26.2266 23.0969 19.9158
C 19.7953 29.2917 20.0397
C 25.4992 19.38 19.6806
C 21.9313 23.0988 20.0004
C 19.7913 26.8152 20.0572
C 19.0884 30.5277 19.9505
C 29.8075 21.8513 19.6468
C 29.7971 26.8072 19.6559
C 28.3738 26.8067 19.8311
C 28.3868 29.2828 19.813
C 16.9331 26.8168 19.9023
C 24.1112 31.7749 19.9352
C 21.9497 30.5288 19.9924
C 30.5145 23.0879 19.5878
C 16.9283 24.3322 19.8583
C 27.6772 30.5235 19.8422
C 23.3628 23.0996 19.9968
C 25.5431 31.794 19.891
C 21.2195 24.3368 20.037
C 21.2344 31.7663 19.9075
C 26.2427 30.537 19.9211
C 27.6599 25.5703 19.8906
C 30.4998 25.5668 19.541
C 21.2298 29.2941 20.045
C 29.8109 29.2798 19.6667
C 27.666 28.047 19.8855
C 23.3875 30.5336 19.9877
C 21.2199 19.3845 19.6412
C 16.9346 29.296 19.8674
C 23.3859 33.0049 19.8537
C 19.0696 20.6281 19.6976
C 17.6513 30.5247 19.8595
C 19.8062 31.7563 19.8748
C 30.5028 28.0404 19.5519
C 21.9552 32.9991 19.8122
C 25.5129 24.3342 19.9802
C 21.2245 26.8166 20.067
C 25.5262 29.2984 19.9775
C 23.349 18.1453 19.5654
C 28.3731 19.3555 19.5566
C 28.3895 31.7667 19.7895
C 26.2298 25.574 19.968
C 26.2508 33.0313 19.8548
C 21.9433 28.0538 20.0571
C 24.0937 29.293 20.0105
C 26.2368 28.0523 19.9652
C 24.0813 24.336 20.0165
C 21.9359 25.5773 20.0558
C 16.9276 21.8608 19.6919
C 19.7907 19.3969 19.7198
C 26.2219 18.1292 19.5699
C 21.9313 18.1744 19.5725
C 30.533 30.5166 19.6058
C 30.5267 20.603 19.5345
C 17.6578 20.6395 19.671
C 24.102 34.2491 19.7698
C 23.3746 28.0565 20.0372
C 25.5182 26.8134 19.9969
C 15.4801 26.8132 19.7902
C 23.3675 25.5766 20.0415
C 31.9354 25.566 19.3183
C 27.6833 33.0204 19.8214
C 24.0841 26.8139 20.0335
C 31.9546 23.1003 19.4181
C 15.4856 24.3362 19.7588
C 29.8325 31.7581 19.7282
C 29.8002 19.3764 19.5162
C 15.4976 29.2914 19.747
C 25.5285 34.2611 19.8086
C 31.9276 28.0383 19.2977
C 27.6443 18.1438 19.5871
C 19.0929 33.0032 19.7122
C 16.9394 31.7634 19.7012
C 21.242 34.2472 19.6516
C 24.0805 16.9292 19.4252
C 14.7943 28.0536 19.7438
C 32.6312 24.3404 19.3091
C 14.7937 25.5732 19.7714
C 32.6191 26.807 19.2584
C 25.4757 16.9151 19.4646
C 15.4996 21.8866 19.6532
C 17.6712 32.9937 19.7204
C 31.9496 20.6426 19.4443
C 19.8178 34.2238 19.6752
C 31.9673 30.512 19.4024
H 19.252 18.4733 19.4318
H 21.3796 17.238 19.39
C 32.6447 21.8521 19.3686
C 23.3759 35.4966 19.6651
H 17.1157 19.6999 19.4516
C 32.6349 29.2689 19.2616
C 14.8018 23.0847 19.7102
C 21.9575 35.4641 19.632
H 30.34 18.4349 19.3065
C 14.8173 30.5385 19.6936
C 15.5178 31.7372 19.6638
H 28.1862 17.186 19.4947
C 28.4036 34.2906 19.8918
H 23.5251 15.9898 19.28
H 13.7074 28.0558 19.5537
C 30.5696 33.0149 19.7595
C 26.2471 35.5198 19.8253
H 33.7248 24.3438 19.1718
H 14.9588 20.93 19.5595
H 13.6953 25.5713 19.6843
H 33.6944 26.7999 18.9986
H 26.0296 15.9697 19.3403
H 32.4952 19.6871 19.3761
H 17.1334 33.912 19.4129
H 19.2892 35.1555 19.3862
H 33.74 21.8609 19.2546
H 33.6994 29.2652 18.9615
H 13.7009 23.0889 19.6571
H 13.7183 30.5391 19.6065
C 32.6557 31.757 19.3842
H 21.4131 36.4122 19.4874
C 24.1102 36.7187 19.6181
H 14.9771 32.6927 19.562
C 27.679 35.5071 19.941
C 29.8384 34.2558 19.952
C 31.9864 32.9707 19.6126
C 25.5089 36.7303 19.7131
H 33.737 31.754 19.2013
H 23.561 37.6664 19.5141
H 28.2295 36.4534 20.088
H 30.4045 35.1965 20.1004
H 32.5332 33.9275 19.6159
H 26.0559 37.6892 19.6995
H 15.2789 19.9568 23.7486
H 21.5535 15.9423 23.6657
H 17.3659 18.6119 23.789
H 19.4533 17.2764 23.7086
H 24.0425 15.8394 23.6131
H 14.1345 22.1846 23.7929
C 22.1436 16.8684 23.5721
C 15.8622 20.8869 23.6434
H 32.8473 20.3986 23.5073
C 17.9505 19.5293 23.6089
C 20.0408 18.1972 23.5608
C 23.5257 16.8098 23.5315
H 26.2418 16.9807 23.5628
H 34.202 22.4726 23.0868
C 15.2278 22.1306 23.6789
H 34.5525 29.9909 23.2747
H 14.255 24.6692 23.7951
H 14.6105 32.0782 23.893
H 28.4305 18.1296 23.6223
H 30.6213 19.2772 23.7319
H 15.924 34.1949 23.6842
H 14.3932 27.1319 23.8569
H 34.4807 27.4733 22.9729
H 22.5699 37.6388 23.8261
H 33.3773 32.1769 23.6353
H 14.5122 29.5981 23.9583
H 34.3319 24.9731 22.7372
C 17.2809 20.786 23.5529
C 21.4566 18.1176 23.5541
H 25.076 37.5183 23.7729
C 19.3616 19.4461 23.5387
H 20.3689 36.515 23.6527
C 32.3445 21.3684 23.3663
C 33.1034 22.5293 23.1456
H 18.1316 35.3971 23.5011
C 25.7326 17.9501 23.4222
C 33.4486 30.0219 23.2909
C 15.3476 24.6209 23.6472
H 31.2793 33.5092 23.7177
C 15.6964 32.0378 23.7349
C 24.312 17.9997 23.4745
H 27.1594 36.2013 23.3977
H 29.2268 34.8537 23.5659
C 15.9708 23.3461 23.6014
C 16.4384 33.222 23.6264
C 27.9374 19.0834 23.3544
C 32.8011 31.2534 23.4705
C 30.1293 20.2284 23.4466
C 23.0738 36.6643 23.7045
C 15.4733 27.0946 23.6215
C 33.3758 27.5232 23.0146
C 15.5871 29.5654 23.7036
C 33.2397 25.031 22.8675
C 24.4644 36.6017 23.6819
C 26.5053 19.1294 23.3906
C 30.9211 21.4084 23.3762
C 20.8582 35.5299 23.5729
C 28.7143 20.2765 23.3832
C 16.0975 25.8157 23.6233
C 32.4864 23.7996 23.0343
C 18.6389 34.4195 23.3899
C 22.2273 19.3323 23.3962
C 32.7196 28.8194 23.1465
C 18.053 22.0037 23.4166
C 16.3238 30.7683 23.6388
C 24.0005 26.7057 23.0466
C 16.2247 28.2984 23.6291
C 20.1357 20.6666 23.3515
C 32.6198 26.3095 22.9669
C 24.7744 27.9125 23.0493
C 30.7061 32.5793 23.5513
C 22.5712 26.7708 23.0715
C 24.6559 25.4316 23.0399
C 23.6483 19.2742 23.3587
C 17.848 33.2014 23.4562
C 26.5596 35.2706 23.42
C 22.2827 35.4857 23.6107
C 17.4086 23.2735 23.4548
C 28.6317 33.9223 23.4872
C 31.379 31.3312 23.4932
C 24.1181 29.1836 23.0809
C 26.2015 27.8442 23.0432
C 21.7989 25.5644 23.0911
C 23.8808 24.227 23.0571
C 20.0761 34.3655 23.4635
C 21.9163 28.0453 23.1021
C 26.087 25.3627 23.0321
C 25.1416 35.3491 23.5533
C 21.5643 20.6026 23.2892
C 19.4862 21.9389 23.2971
C 22.4513 24.2906 23.0868
C 22.6871 29.252 23.1089
C 26.8649 26.5711 23.032
C 25.8445 20.4114 23.2511
C 29.2967 32.6596 23.5298
C 17.535 25.7567 23.4289
C 28.0466 21.5502 23.228
C 30.2515 22.682 23.2301
C 27.2177 34.0173 23.3267
C 31.0326 23.8817 23.134
C 24.4171 20.4773 23.2305
C 24.5363 22.9527 23.0798
C 20.3704 25.6261 23.1545
C 18.1795 24.4844 23.352
C 17.6552 28.2393 23.4186
C 26.7434 24.0914 23.0522
C 20.4889 28.1103 23.1582
C 26.9722 29.0471 23.0862
C 21.6797 23.0819 23.1417
C 26.6215 21.6123 23.1665
C 24.8914 30.3893 23.1127
C 17.7583 30.7146 23.4497
C 31.2719 28.8624 23.1544
C 22.3325 21.8084 23.1694
C 20.2528 23.1436 23.2039
C 25.9648 22.8865 23.0818
C 23.7611 21.746 23.1409
C 31.1674 26.3784 23.0415
C 19.7212 26.9006 23.1946
C 18.5205 31.9201 23.3955
C 19.6003 24.4189 23.22
C 18.2963 26.9648 23.3282
C 28.8201 22.7446 23.1719
C 28.2934 26.5036 23.038
C 26.3207 30.3219 23.1239
C 22.9372 34.2041 23.4774
C 22.0348 30.5237 23.1673
C 30.6071 30.1168 23.2945
C 18.4123 29.4417 23.3426
C 28.1755 24.024 23.0875
C 30.3845 25.1692 23.0864
C 20.7256 33.0686 23.3788
C 19.8362 29.3839 23.2169
C 30.5085 27.6557 23.064
C 28.9482 25.2291 23.0693
C 24.3624 34.1355 23.4378
C 28.4151 28.9793 23.1176
C 29.0714 27.7097 23.0594
C 20.6029 30.5929 23.2143
C 24.2357 31.6621 23.1937
C 19.9531 31.8631 23.3006
C 28.5232 31.4463 23.3288
C 22.8076 31.7272 23.2239
C 26.4369 32.7932 23.2808
C 22.155 32.9976 23.362
C 27.094 31.5254 23.2292
C 29.1755 30.1753 23.2385
C 25.011 32.8634 23.2832
H 23.198 15.851 26.6933
H 14.785 20.9829 26.8972
H 25.6857 15.7778 26.6833
H 32.2023 19.3303 26.7795
H 33.4935 21.4587 26.8989
H 13.5946 23.1668 26.9785
H 15.0529 32.6973 27.0999
H 13.7378 30.5645 27.0045
H 18.9972 18.4242 26.6613
H 21.1011 17.1417 26.6535
H 16.8905 19.7072 26.745
H 33.5798 26.4346 27.1676
H 19.4188 35.0636 27.2847
H 33.733 31.4067 26.9037
H 23.7227 37.4832 27.1351
H 33.5335 23.9337 27.0636
H 17.2337 33.8442 27.3366
H 27.8564 16.9604 26.6503
H 30.0316 18.1447 26.6862
H 33.6431 28.9365 27.1121
H 32.5292 33.5998 26.936
H 21.5819 36.3048 27.0216
H 26.2203 37.3918 27.3957
H 13.6939 28.0966 26.9595
H 13.6523 25.6326 26.9613
C 23.7868 16.7806 26.6306
C 25.155 16.7422 26.6215
C 15.3462 21.9306 26.835
C 31.6847 20.3006 26.7127
C 14.6922 23.1295 26.8763
C 32.3983 21.4763 26.7797
C 14.8398 30.556 26.9337
C 15.5604 31.7251 26.9864
H 30.407 34.8598 27.1849
H 28.2802 36.0935 27.4939
C 21.6802 18.0784 26.5835
C 19.5715 19.3645 26.5897
C 17.4611 20.6502 26.6754
C 32.6348 31.4404 26.8205
C 24.258 36.5211 27.0839
C 31.9781 32.6516 26.8458
C 27.3332 17.9287 26.566
C 25.6232 36.4775 27.2209
C 29.5093 19.1122 26.5917
C 32.4486 23.9653 26.8527
C 32.5477 26.4593 26.7649
C 17.7505 32.9085 27.0443
C 19.9264 34.1173 26.9933
C 14.749 25.6059 26.8407
C 14.7909 28.0778 26.8395
C 32.5669 28.9513 26.8453
C 22.0762 35.3225 26.9157
C 23.0712 18.0283 26.5592
C 25.9397 17.9496 26.5402
C 16.7803 21.8645 26.6994
C 30.2579 20.3 26.5873
C 15.4045 24.3782 26.7851
C 31.742 22.7463 26.7116
C 15.4968 29.2876 26.8083
C 20.9757 19.3105 26.5312
C 16.9914 31.7309 26.9021
C 18.8772 20.5885 26.5717
C 28.1015 19.123 26.5147
C 29.8667 33.9151 27.0139
C 27.7375 35.1606 27.2835
C 15.4517 26.8348 26.7585
C 24.0088 26.6735 26.0918
C 31.9227 30.2061 26.7312
C 31.8041 25.2243 26.7844
C 23.4813 35.3242 26.9053
C 19.1741 32.9161 26.9601
C 31.8649 27.7269 26.7546
C 21.3408 34.1269 26.8291
C 30.5503 32.7083 26.8126
C 26.3381 35.2316 27.148
C 23.3225 27.9273 26.1207
C 25.4382 26.6322 26.0915
C 23.2664 25.4496 26.1202
C 28.4588 33.9527 27.0622
C 24.0662 29.1483 26.1682
C 26.1815 27.8517 26.1221
C 23.8299 19.25 26.4487
C 21.8925 27.9593 26.1773
C 26.1242 25.3769 26.1132
C 25.2466 19.2118 26.4412
C 17.5165 23.1015 26.5842
C 21.8383 25.4838 26.169
C 23.9507 24.1955 26.1363
C 16.8375 24.344 26.6249
C 29.584 21.5648 26.4651
C 30.3252 22.7773 26.5117
C 16.9311 29.2755 26.6627
C 17.6695 30.4886 26.6899
C 25.4951 29.1057 26.1716
C 21.1523 26.7371 26.2001
C 25.3797 24.1583 26.132
C 27.4172 20.3881 26.3934
C 21.7252 20.5377 26.4111
C 19.6206 21.8204 26.4497
C 30.5054 30.2306 26.5625
C 16.8849 26.8132 26.5942
C 24.1951 34.0893 26.7716
C 30.3876 25.2599 26.5068
C 29.826 31.4769 26.6201
C 19.8598 31.6819 26.6491
C 25.6093 34.027 26.8502
C 30.445 27.7517 26.4931
C 22.0418 32.8836 26.6252
C 21.2135 29.214 26.2772
C 23.3911 30.4082 26.2936
C 27.6122 27.8142 26.1894
C 27.5541 25.3356 26.1739
C 21.0991 24.2614 26.2381
C 25.9938 20.4262 26.3509
C 23.2078 22.9755 26.2032
C 23.1467 20.5015 26.3652
C 18.9369 23.0693 26.447
C 28.1617 21.6016 26.3494
C 17.568 25.5666 26.5201
C 17.6184 28.0325 26.5328
C 21.0418 21.7872 26.3604
C 21.9565 30.4314 26.3363
C 29.6574 24.0418 26.4058
C 28.2976 26.5578 26.2183
C 21.7833 23.0104 26.2531
C 19.1043 30.4787 26.5606
C 27.7234 32.7357 26.7569
C 19.7267 26.7647 26.3026
C 29.7173 26.5229 26.3824
C 26.0611 22.902 26.1903
C 21.2875 31.6796 26.5143
C 26.2458 30.3124 26.3038
C 29.7736 29.002 26.4284
C 23.467 32.8627 26.5821
C 23.8906 21.7203 26.2597
C 19.6736 24.2924 26.337
C 19.7889 29.2334 26.3832
C 28.2337 24.0797 26.2379
C 25.3139 21.6832 26.2541
C 18.9908 25.541 26.3725
C 27.4867 22.8638 26.2411
C 19.0464 28.0145 26.3893
C 24.1398 31.6126 26.4366
C 28.4045 31.4981 26.5473
C 26.3003 32.7706 26.6875
C 28.3496 29.032 26.2934
C 25.5687 31.5643 26.4541
C 27.67 30.2843 26.3546
Li 31.6157 21.8792 21.3267
Li 16.7244 31.9676 21.7732
Li 16.3516 22.0991 21.7533
Li 24.7199 35.7153 21.5167
Li 31.7626 31.5803 21.4093
Li 29.0491 33.0173 21.5451
Li 21.573 34.5548 21.6899
Li 20.9728 18.721 21.5874
Li 15.1406 28.4916 21.8137
Li 15.9721 25.462 21.5952
Li 26.9033 19.3298 21.3684
Li 33.1009 28.1188 21.0286
Li 33.1792 27.8778 25.0974
Li 31.7158 24.9391 21.2871
Li 18.458 19.8402 21.5593
Li 24.6028 17.7292 21.3864
Li 29.5161 19.2539 21.6305
Li 18.4575 34.2458 21.3328
Li 29.7686 33.8714 17.8605
Li 32.4896 24.9824 24.8772
Li 27.4135 35.3766 17.8639
Li 27.3076 34.4013 25.313
Li 18.5137 34.1137 25.4184
Li 21.4282 35.1847 25.2642
