600
592nano.out 0 0 0
C 24.0683 26.836 16.2799
C 24.0567 26.7908 19.4886
C 24.7787 28.0668 16.2643
C 25.4785 26.7895 19.4912
C 26.2026 25.6034 16.2739
C 26.1882 25.5568 19.4918
C 26.9132 26.8347 16.26
C 27.6107 25.5566 19.4854
C 24.0662 29.2985 16.2524
C 24.0569 29.2526 19.4866
C 24.7745 30.5323 16.2035
C 25.4788 29.2503 19.4914
C 26.2017 28.0662 16.2483
C 26.1899 28.019 19.4959
C 26.9107 29.2993 16.1935
C 27.6139 28.0181 19.5049
C 24.0333 26.7217 22.7299
C 24.0127 26.6807 25.9505
C 24.7432 27.9535 22.7341
C 25.4351 26.6809 25.9581
C 26.1658 25.4928 22.7392
C 26.1464 25.4492 25.9725
C 26.8759 26.7244 22.7431
C 27.5701 25.4507 26.0036
C 24.0315 29.1839 22.7323
C 24.0112 29.1439 25.9623
C 24.7428 30.4163 22.7395
C 25.4337 29.1441 25.9725
C 26.1649 27.955 22.7454
C 26.1458 27.9129 25.9656
C 26.8757 29.1872 22.7639
C 27.5693 27.9132 25.9853
C 30.4737 25.598 16.2347
C 30.4551 25.5501 19.4535
C 31.1833 26.8283 16.204
C 31.8935 25.5509 19.4359
C 30.4337 25.502 22.6789
C 30.415 25.4525 26.127
C 31.1465 26.7292 22.7145
C 31.8568 25.4599 26.1975
C 28.3366 26.8336 16.2431
C 28.3232 26.7865 19.493
C 29.0449 28.0642 16.1919
C 29.7488 26.7848 19.4865
C 28.2987 26.7263 22.7427
C 28.2806 26.6818 26.0065
C 29.0096 27.9569 22.7651
C 29.7069 26.6836 26.0494
C 30.4745 23.1391 16.2306
C 30.4496 23.0856 19.4238
C 31.1825 24.3627 16.2268
C 31.8859 23.0935 19.3882
C 30.4306 23.0347 22.5929
C 30.406 22.9803 26.2358
C 31.1423 24.2667 22.5917
C 31.8419 22.9946 26.4028
C 28.3377 24.3708 16.2581
C 28.3189 24.3234 19.471
C 29.0479 25.6003 16.2508
C 29.7444 24.323 19.4469
C 28.2986 24.2632 22.712
C 28.2795 24.2178 26.0504
C 29.0096 25.4953 22.7135
C 29.7033 24.2221 26.1377
C 30.4704 30.5131 15.9624
C 30.4588 30.4774 19.6489
C 31.1788 31.7559 15.7877
C 31.9036 30.4609 19.6813
C 30.4347 30.4159 22.8352
C 30.4131 30.3835 26.0416
C 31.1438 31.664 22.8736
C 31.8509 30.3745 26.0486
C 24.0474 34.2335 16.1253
C 24.0531 34.1837 19.444
C 24.767 35.4708 16.0653
C 25.4703 34.1877 19.5151
C 26.1826 32.9942 15.9878
C 26.1919 32.9497 19.5334
C 26.8951 34.2389 15.8058
C 27.6155 32.9486 19.631
C 24.0205 34.1092 22.6225
C 24.0047 34.0622 26.2511
C 24.752 35.3494 22.5181
C 25.4291 34.0617 26.2723
C 26.1639 32.8812 22.7447
C 26.1478 32.8346 26.1468
C 26.8886 34.1271 22.7491
C 27.5689 32.8397 26.1319
C 28.329 31.758 15.968
C 28.3227 31.7137 19.6059
C 29.0447 33.0046 15.828
C 29.7493 31.7105 19.6845
C 28.2993 31.6498 22.8243
C 28.2805 31.6114 26.0643
C 29.0158 32.896 22.8584
C 29.7051 31.6091 26.0659
C 30.4719 28.0579 16.1659
C 30.4604 28.0139 19.5251
C 31.182 29.2876 16.0664
C 31.9022 28.0077 19.5338
C 30.4356 27.9579 22.7655
C 30.4164 27.9173 26.0405
C 31.1443 29.1915 22.8036
C 31.8556 27.916 26.0665
C 24.0606 31.7633 16.1896
C 24.0562 31.7162 19.4651
C 24.7667 33 16.105
C 25.48 31.7138 19.4824
C 26.1972 30.5308 16.155
C 26.1902 30.481 19.5039
C 26.9037 31.7627 16.0387
C 27.6137 30.4819 19.5372
C 24.0296 31.6465 22.7226
C 24.0083 31.6059 26.0464
C 24.7438 32.8793 22.6976
C 25.4317 31.6056 26.0618
C 26.1638 30.4176 22.7612
C 26.1451 30.3759 26.009
C 26.8766 31.6518 22.7835
C 27.5677 30.3767 26.0204
C 28.3326 29.2966 16.1516
C 28.3248 29.2478 19.5327
C 29.0403 30.5293 16.0344
C 29.7492 29.2422 19.5624
C 28.2981 29.187 22.7831
C 28.2795 29.1461 26.0028
C 29.0101 30.4212 22.8174
C 29.7061 29.1468 26.0228
H 14.448 21.8821 16.1863
H 14.9763 20.9365 19.3174
H 14.436 21.7562 22.3323
H 14.927 20.8258 26.4255
H 22.1258 16.0513 15.7069
C 22.6739 16.9955 15.7706
H 23.5393 15.9924 19.8031
H 22.0902 15.9185 22.8343
C 22.6437 16.8632 22.8265
H 23.4924 15.8756 26.0048
H 15.6871 19.7402 16.1396
C 16.2259 20.6928 16.1428
H 17.1096 19.7055 19.3857
H 17.8276 18.5139 16.0604
C 18.3756 19.4619 16.0828
H 15.6692 19.6225 22.5238
C 16.214 20.5721 22.5228
H 17.0693 19.5781 26.2088
H 17.8126 18.3832 22.641
C 18.3597 19.3317 22.654
H 19.9715 17.2812 15.8967
C 20.5162 18.23 15.943
H 21.3896 17.2269 19.7295
H 19.9556 17.1502 22.7543
C 20.5002 18.101 22.7613
H 21.3592 17.1105 25.9857
H 24.6023 16.0517 15.7193
H 24.5671 15.9276 22.8544
H 13.7288 25.5441 19.3854
C 14.8246 25.548 19.3989
H 13.6849 25.4513 26.2645
C 14.7791 25.4526 26.2269
H 13.7329 23.0768 19.3214
H 14.4466 24.3461 16.2254
C 14.8276 23.0709 19.3429
H 13.6925 22.9694 26.4414
H 14.429 24.242 22.4126
C 14.7854 22.9663 26.3888
H 13.7306 30.4854 19.665
H 14.4642 31.7519 15.739
C 14.8248 30.4933 19.6599
H 13.6771 30.3912 26.0098
H 14.42 31.6548 22.8408
C 14.7716 30.4 26.0129
H 13.7253 28.0169 19.4697
H 14.4445 29.2947 16.084
C 14.8209 28.0207 19.4858
H 13.6826 27.9235 26.0989
H 14.4232 29.1941 22.7731
C 14.7776 27.9226 26.0819
C 15.5421 21.8738 16.1667
C 15.5125 21.89 19.3368
C 16.2242 23.1379 16.1813
C 16.9478 21.8487 19.3658
C 17.6619 20.6576 16.1321
C 17.6576 20.653 19.3894
C 18.3722 21.9076 16.1607
C 19.0732 20.6157 19.4332
C 15.5416 24.3494 16.2084
C 15.5083 24.3334 19.3786
C 16.2184 25.5942 16.221
C 16.9464 24.3236 19.4025
C 17.6628 23.1312 16.1852
C 17.6561 23.0986 19.3919
C 18.3699 24.3676 16.2124
C 19.0801 23.0925 19.4221
C 15.5272 21.754 22.4178
C 15.473 21.7726 26.3835
C 16.2084 23.0262 22.4184
C 16.9117 21.723 26.2847
C 17.6459 20.5301 22.6017
C 17.62 20.5241 26.1926
C 18.3516 21.7841 22.62
C 19.0331 20.4939 26.0967
C 15.5209 24.2448 22.4902
C 15.463 24.2348 26.2951
C 16.1951 25.4902 22.6141
C 16.9076 24.2184 26.222
C 17.6456 23.0128 22.5574
C 17.6197 22.9847 26.2188
C 18.3471 24.255 22.6395
C 19.0428 22.9782 26.1055
C 21.9298 20.6851 16.083
C 21.9207 20.6302 19.5342
C 22.6458 21.9143 16.1562
C 23.3406 20.6318 19.5643
C 21.903 20.5576 22.7681
C 21.8842 20.5146 26.0094
C 22.6149 21.7932 22.7606
C 23.3036 20.515 26.0016
C 19.7969 21.907 16.1625
C 19.7896 21.8625 19.4379
C 20.5098 23.1414 16.2016
C 21.2106 21.8602 19.4768
C 19.7732 21.7852 22.6945
C 19.7491 21.7462 26.0706
C 20.4818 23.0225 22.7093
C 21.17 21.7456 26.0185
C 21.9134 18.2147 15.8801
C 21.9335 18.1752 19.6719
C 22.6479 19.4572 15.967
C 23.3311 18.1615 19.753
C 21.8928 18.0855 22.8005
C 21.9048 18.0594 26.0035
C 22.6177 19.3271 22.7971
C 23.2953 18.0426 26.0144
C 19.7884 19.4342 16.0473
C 19.7948 19.4106 19.4964
C 20.5088 20.6796 16.1012
C 21.1962 19.385 19.5616
C 19.7689 19.3078 22.7203
C 19.7589 19.2916 26.0401
C 20.4834 20.5554 22.7339
C 21.164 19.2684 26.0151
C 21.933 25.6041 16.2671
C 21.9243 25.5594 19.4811
C 22.6451 26.8355 16.2799
C 23.3458 25.5595 19.4851
C 21.9023 25.4879 22.7278
C 21.8801 25.4485 25.968
C 22.6117 26.7202 22.727
C 23.3024 25.4486 25.9579
C 15.5386 29.2875 16.0925
C 15.5032 29.2343 19.5657
C 16.2258 30.4956 15.976
C 16.9412 29.246 19.5683
C 17.6592 28.0562 16.2081
C 17.6519 28.0138 19.5057
C 18.3745 29.2823 16.1768
C 19.0786 28.0184 19.5092
C 15.5179 29.1915 22.7826
C 15.4573 29.1383 26.0332
C 16.1971 30.4045 22.819
C 16.8958 29.1473 26.0147
C 17.6329 27.9494 22.7507
C 17.6064 27.9128 26.0219
C 18.3413 29.1793 22.7787
C 19.0326 27.9123 25.9923
C 19.7964 26.8319 16.2599
C 19.7902 26.7885 19.489
C 20.5086 28.0619 16.2679
C 21.2135 26.7908 19.4896
C 19.7685 26.7174 22.7271
C 19.7451 26.6809 25.9934
C 20.4778 27.9493 22.7388
C 21.1682 26.6804 25.9669
C 21.9327 23.1436 16.2097
C 21.9231 23.0954 19.4776
C 22.645 24.3742 16.2494
C 23.3433 23.0955 19.4945
C 21.9032 23.0238 22.7378
C 21.8812 22.9825 25.9947
C 22.6136 24.2569 22.7359
C 23.3029 22.9831 25.9805
C 15.5357 26.8217 16.2257
C 15.5028 26.7854 19.4443
C 16.2164 28.0498 16.1857
C 16.9413 26.7859 19.4616
C 17.6584 25.5945 16.2269
C 17.6538 25.557 19.4427
C 18.369 26.8269 16.2409
C 19.0798 25.5573 19.4632
C 15.5152 26.7177 22.6705
C 15.4588 26.685 26.1256
C 16.1948 27.9468 22.7423
C 16.8982 26.6824 26.0817
C 17.6356 25.485 22.6591
C 17.6129 25.4543 26.1086
C 18.3427 26.7169 22.7188
C 19.0368 25.4483 26.0451
C 19.7974 24.3705 16.2257
C 19.7909 24.3274 19.4516
C 20.5087 25.6023 16.2539
C 21.2135 24.3271 19.469
C 19.7708 24.2536 22.6949
C 19.7487 24.2156 26.0447
C 20.4794 25.4871 22.7193
C 21.1704 24.2143 25.9961
C 24.0517 16.995 15.7746
C 24.0901 16.9352 19.7392
C 24.8113 18.2147 15.8957
C 25.4574 16.9383 19.6522
H 26.0105 15.9931 19.6425
H 26.7485 17.2776 15.976
C 24.0723 19.4576 15.9753
C 24.0623 19.4016 19.6381
C 24.7876 20.6849 16.1045
C 25.4796 19.3983 19.5867
C 26.2029 18.2263 15.9999
C 26.209 18.1584 19.5984
C 26.9334 19.4328 16.1174
C 27.603 18.1751 19.5593
C 24.0084 16.8677 22.8388
C 24.0483 16.8182 26.0169
C 24.7595 18.0912 22.8232
C 25.4131 16.8174 26.0221
H 25.9667 15.8729 26.0184
H 26.6953 17.1613 22.8167
C 24.0325 19.3302 22.8069
C 24.0214 19.2841 26.0103
C 24.7488 20.5611 22.7873
C 25.4363 19.2842 26.0134
C 26.1495 18.1099 22.8094
C 26.1637 18.0427 26.0191
C 26.8886 19.3186 22.7809
C 27.5566 18.0623 26.0217
H 28.1493 17.2254 19.5769
H 28.1031 17.1132 26.0189
C 30.4754 20.6938 16.2338
C 30.452 20.6107 19.4341
C 31.1846 21.8882 16.2227
C 31.8852 20.6472 19.3902
C 30.4302 20.5782 22.6132
C 30.4115 20.4997 26.1586
C 31.1405 21.776 22.5426
C 31.8415 20.5418 26.2565
C 24.0682 24.3743 16.2588
C 24.0551 24.3274 19.49
C 24.78 25.6043 16.2765
C 25.4769 24.3267 19.4944
C 26.2032 23.1415 16.2411
C 26.187 23.094 19.4982
C 26.9143 24.3709 16.2641
C 27.6083 23.0934 19.4803
C 24.035 24.2585 22.7421
C 24.0138 24.2164 25.9672
C 24.7445 25.491 22.7367
C 25.4358 24.2171 25.976
C 26.1681 23.0284 22.7488
C 26.1471 22.9842 25.9969
C 26.8771 24.2603 22.7371
C 27.5684 22.9854 26.0374
C 28.3403 21.9076 16.2293
C 28.3201 21.8579 19.472
C 29.0501 23.1356 16.2422
C 29.7427 21.8607 19.4408
C 28.301 21.7962 22.7125
C 28.2797 21.749 26.0633
C 29.0067 23.0275 22.6802
C 29.7016 21.7508 26.1534
H 30.2877 18.4648 19.4844
H 31.0213 19.7452 16.2501
H 30.2496 18.3529 26.0723
H 30.9796 19.633 22.578
C 24.069 21.9143 16.1676
C 24.0549 21.8639 19.5224
C 24.7813 23.1431 16.2291
C 25.4759 21.8632 19.5177
C 26.2074 20.6789 16.1493
C 26.1909 20.6299 19.5284
C 26.9179 21.907 16.2144
C 27.6109 20.6284 19.499
C 24.0356 21.7949 22.7694
C 24.0156 21.7509 25.9897
C 24.7469 23.0269 22.7548
C 25.4366 21.7515 25.9967
C 26.1677 20.5628 22.7756
C 26.1503 20.5165 26.0088
C 26.8804 21.7935 22.7509
C 27.571 20.5175 26.0314
C 28.3368 19.4566 16.1854
C 28.3303 19.3838 19.5103
C 29.0583 20.6603 16.2202
C 29.7408 19.4135 19.4756
C 28.2926 19.3439 22.7432
C 28.2897 19.2716 26.0374
C 29.0179 20.5464 22.697
C 29.7005 19.3006 26.0797
H 32.4236 19.694 19.3761
H 33.1567 20.9727 16.2314
H 32.3875 19.5935 26.2321
H 33.1184 20.8753 22.3939
H 14.9601 32.6214 19.8762
H 14.9163 32.534 25.9615
C 15.554 31.7604 15.8204
C 15.5048 31.676 19.791
C 16.2444 32.9508 15.7934
C 16.9468 31.7189 19.8047
C 17.6709 30.5153 16.0507
C 17.652 30.4697 19.6482
C 18.3819 31.7479 16.0394
C 19.0799 30.4837 19.5773
H 15.7111 33.8962 15.6667
H 17.1153 33.8652 19.8835
C 17.6763 33.0045 15.9354
C 17.6599 32.9243 19.7595
C 18.3791 34.2085 16.0104
C 19.074 32.9644 19.6202
C 15.5143 31.6678 22.8418
C 15.4546 31.5817 25.9895
C 16.1942 32.8514 22.8455
C 16.8909 31.6219 25.9904
C 17.6341 30.4151 22.8104
C 17.6028 30.3729 25.9945
C 18.3401 31.6418 22.8143
C 19.0277 30.3786 25.9829
H 15.6518 33.8027 22.849
H 17.0504 33.7644 25.9495
C 17.6287 32.8908 22.8289
C 17.6003 32.8182 25.9752
C 18.34 34.0892 22.7995
C 19.0172 32.8549 25.9919
C 21.9325 30.53 16.2492
C 21.9225 30.4847 19.4984
C 22.6388 31.7633 16.2243
C 23.3454 30.486 19.4811
C 21.8974 30.4139 22.7374
C 21.8752 30.3766 25.9766
C 22.6078 31.6455 22.7251
C 23.2971 30.3758 25.9858
C 19.8034 31.7596 16.1585
C 19.7884 31.7136 19.5662
C 20.5049 32.9955 16.1765
C 21.21 31.7185 19.5078
C 19.763 31.6467 22.7813
C 19.7363 31.6081 25.9881
C 20.4721 32.8774 22.7603
C 21.1595 31.6107 25.9998
C 21.9333 28.0655 16.2786
C 21.9235 28.0214 19.4955
C 22.6442 29.2974 16.2658
C 23.3461 28.0222 19.4901
C 21.9002 27.951 22.7295
C 21.8781 27.9124 25.9542
C 22.61 29.1827 22.7303
C 23.3008 27.9123 25.9503
C 19.7988 29.2923 16.2326
C 19.7897 29.2494 19.5251
C 20.51 30.5255 16.2232
C 21.2125 29.2538 19.5059
C 19.7666 29.181 22.7603
C 19.7421 29.1439 25.9736
C 20.4758 30.4122 22.7598
C 21.1652 29.1448 25.9624
C 21.9069 35.4729 16.2213
C 21.9324 35.4016 19.422
C 22.657 36.6927 16.2416
C 23.3269 35.4204 19.4173
C 21.873 35.3492 22.6617
C 21.8747 35.294 26.2042
C 22.623 36.569 22.601
C 23.2652 35.3057 26.3235
H 19.9614 36.4009 16.2174
H 21.3873 36.3504 19.4036
H 19.9312 36.278 22.7079
H 21.3315 36.2442 26.2188
C 21.9241 32.9986 16.21
C 21.9211 32.9501 19.4733
C 22.6326 34.2335 16.1931
C 23.3411 32.9509 19.4495
C 21.8918 32.8781 22.7231
C 21.8698 32.8405 26.0613
C 22.6034 34.1106 22.6682
C 23.2893 32.8354 26.1108
H 17.8279 35.1516 15.9464
H 17.7891 35.0361 22.7945
C 19.7855 34.2438 16.1379
C 19.793 34.1665 19.555
C 20.5088 35.4521 16.2027
C 21.1984 34.1951 19.4741
C 19.7512 34.1214 22.762
C 19.7398 34.0599 26.0197
C 20.4794 35.3298 22.7156
C 21.1431 34.0867 26.0886
C 32.6212 21.9264 16.2171
C 32.5662 21.8294 19.3622
C 33.3056 23.1064 16.2081
H 33.6592 21.8395 19.3239
C 32.6221 24.3703 16.2129
C 32.5669 24.305 19.3914
C 33.3025 25.5841 16.2034
H 33.6609 24.3034 19.3673
H 34.4001 23.1124 16.2106
C 32.578 21.8237 22.4498
C 32.5251 21.7234 26.3911
C 33.2668 23.0153 22.4465
H 33.6171 21.7255 26.4722
C 32.5868 24.2838 22.5284
C 32.5319 24.2149 26.337
C 33.2683 25.5005 22.5933
H 33.6249 24.2115 26.4091
H 34.3591 23.0191 22.3832
C 32.6195 29.2754 16.0591
C 32.5837 29.2426 19.6118
C 33.2996 30.5305 15.9635
H 33.6772 29.2427 19.6405
H 34.3993 28.0593 16.1311
C 32.5816 29.1835 22.8013
C 32.5323 29.1608 26.0465
C 33.2644 30.4438 22.8502
H 33.6271 29.1633 26.0402
H 34.3595 27.9717 22.7256
C 32.6225 26.8257 16.1881
C 32.5772 26.7759 19.4773
C 33.3036 28.0575 16.1353
H 34.398 25.5845 16.1958
C 32.5857 26.7329 22.6867
C 32.5371 26.6862 26.1328
C 33.2641 27.9685 22.7422
H 34.3627 25.5001 22.5507
H 22.1097 37.6383 16.3153
H 23.5242 37.5808 19.3663
H 22.0706 37.5142 22.5997
H 23.4779 37.4702 26.4958
C 24.0243 36.6917 16.165
C 24.0777 36.6395 19.427
H 24.581 37.6336 16.1743
C 25.4405 36.6491 19.5463
C 26.1609 35.4506 15.9058
C 26.1893 35.4307 19.6278
H 26.7015 36.4008 15.8284
C 27.5911 35.4113 19.7869
H 25.9876 37.5955 19.5975
C 23.9914 36.5743 22.5208
C 24.0257 36.5247 26.4535
H 24.5403 37.5185 22.4565
C 25.4038 36.5229 26.4778
C 26.1498 35.3356 22.6339
C 26.1649 35.3032 26.3719
H 26.6931 36.2849 22.5938
C 27.5619 35.2881 26.309
H 25.9517 37.4671 26.5478
H 30.2949 35.1103 19.9369
H 30.2516 35.0032 26.1864
H 28.1251 36.3588 19.911
H 28.1059 36.2371 26.3591
C 30.4602 32.9651 15.7711
C 30.4579 32.9658 19.7852
H 31.0091 33.9062 15.6657
C 31.8948 32.9205 19.8053
C 30.4311 32.8595 22.8878
C 30.4161 32.859 26.1
H 30.9793 33.8067 22.9074
C 31.852 32.8211 26.0858
C 28.3143 34.2115 15.7554
C 28.3349 34.1993 19.7802
C 29.7456 34.169 19.8333
C 28.2899 34.101 22.8281
C 28.2902 34.0845 26.1951
C 29.703 34.0555 26.1576
C 32.6175 31.7152 15.8254
C 32.5817 31.7254 19.7624
H 33.1632 32.6605 15.7412
H 33.6744 31.7198 19.7805
H 34.3941 30.5266 15.9931
H 32.4401 33.8674 19.8629
C 32.5785 31.6242 22.8859
C 32.5337 31.6386 26.0582
H 33.1149 32.5768 22.9228
H 33.6278 31.6293 26.039
H 34.3595 30.4376 22.8594
H 32.393 33.7727 26.0922
H 33.6315 26.6877 26.1568
H 19.2124 18.3434 26.0327
H 19.1918 35.0071 26.0076
H 14.4214 26.7205 22.6355
H 28.8375 35.0484 22.8275
H 33.6716 26.7744 19.4778
H 28.8391 18.396 22.7367
H 19.2489 18.4627 19.5174
H 19.2458 35.1133 19.5848
H 28.8552 35.1548 15.6173
H 14.4412 26.8231 16.2399
H 28.8831 18.5082 16.1899
Li 31.224 31.7952 17.876
Li 16.1098 22.9187 24.4671
Li 23.3844 18.0828 17.7008
Li 24.7213 35.4412 24.5514
Li 31.9507 22.9862 24.3475
Li 16.8294 31.8157 17.7587
Li 27.2065 34.419 17.8317
Li 20.37 34.6555 17.8569
