642
592nano.out 0 0 0
C 22.6768 21.9316 16.6543
C 20.5198 23.1483 16.7254
C 21.9741 20.7058 16.3986
C 24.1067 21.9432 16.6757
C 19.8186 21.9172 16.498
C 19.7973 24.3792 16.804
C 29.0661 25.712 16.5146
C 29.05 28.1889 16.5211
C 28.367 24.4698 16.5735
C 20.4414 30.5952 16.856
C 22.5684 31.8633 16.7911
C 19.7453 29.3459 16.8855
C 28.3287 29.4235 16.5983
C 24.0007 31.8732 16.7779
C 24.836 20.7207 16.4992
C 21.9514 23.16 16.7852
C 18.3694 24.3684 16.6909
C 26.9629 21.9824 16.5246
C 28.3461 26.9453 16.618
C 18.3478 26.844 16.7635
C 21.8721 30.6122 16.9052
C 20.5416 20.705 16.2949
C 29.091 23.2438 16.4301
C 26.2401 23.2055 16.7027
C 19.7699 26.8608 16.911
C 26.1705 30.6504 16.7781
C 18.3186 29.3236 16.7406
C 30.4832 25.7262 16.2876
C 26.8655 31.8918 16.6031
C 30.4596 28.1974 16.2512
C 19.7107 31.8196 16.6513
C 29.0163 30.6656 16.4193
C 26.9024 29.4166 16.7708
C 24.737 30.6408 16.8656
C 21.8342 33.0802 16.5837
C 24.6983 33.1074 16.5777
C 24.8093 23.1875 16.7826
C 26.9417 24.4528 16.7145
C 20.4976 25.6249 16.9168
C 20.4718 28.113 16.9576
C 26.2566 20.7462 16.4296
C 17.6556 25.5955 16.6571
C 22.7072 19.4788 16.2105
C 28.3871 22.0114 16.3714
C 18.3864 21.9071 16.4199
C 17.6328 28.0805 16.6463
C 24.1343 19.4847 16.2876
C 17.6676 23.1241 16.5427
C 31.1716 26.9609 16.1114
C 28.284 31.89 16.4209
C 26.1225 33.1113 16.4932
C 20.4029 33.055 16.4886
C 26.9216 26.9347 16.7807
C 22.6042 29.3796 16.9777
C 22.6545 24.4046 16.902
C 30.5175 23.2596 16.2827
C 31.2077 24.4936 16.1786
C 17.5853 30.5499 16.6204
C 18.2724 31.7902 16.5482
C 31.1462 29.4471 16.0384
C 26.1982 28.1704 16.8546
C 24.0384 29.3932 16.9544
C 30.4257 30.6772 16.1295
C 26.2184 25.6863 16.8186
C 21.9035 28.1274 17.0024
C 22.5335 34.3123 16.3544
C 21.9287 25.6405 16.9618
C 24.0863 24.4198 16.8869
C 23.9622 34.3258 16.3605
C 19.8328 19.4675 15.973
C 24.7681 28.1574 16.9476
C 22.6313 26.8909 16.9992
C 24.7897 25.6702 16.9114
C 21.9967 18.24 15.9196
C 17.6782 20.6809 16.1577
C 26.98 19.5207 16.1747
C 29.1144 20.7959 16.105
C 16.2311 25.5782 16.4223
C 24.8639 18.2548 16.0819
C 16.2153 28.0709 16.367
C 16.2422 23.1086 16.432
C 24.0646 26.9061 16.973
C 32.5877 26.9662 15.7454
C 20.5768 18.2622 15.8378
C 18.4181 19.4858 15.9076
C 19.6571 34.2815 16.2018
C 31.2444 22.0319 16.1676
C 28.9713 33.1276 16.1344
C 26.8114 34.3431 16.1983
C 32.6187 24.494 15.893
C 16.1622 30.5323 16.4882
C 32.5594 29.451 15.684
C 17.5313 33.0075 16.3179
C 21.7945 35.5401 16.0967
C 31.1056 31.9238 15.8601
C 24.6668 35.5621 16.0888
C 26.2828 18.3023 16.0861
C 15.5589 24.3453 16.3551
C 33.2798 25.7352 15.6521
C 28.4075 19.5429 16.1349
C 33.2537 28.2134 15.5818
C 30.5194 20.8215 16.0804
C 15.5076 26.8173 16.3914
C 22.7497 17.0322 15.8048
C 18.2431 34.2294 16.1429
C 20.3661 35.5098 16.0866
C 15.5081 29.2867 16.3554
C 16.257 20.6813 16.235
C 24.1516 17.0445 15.8693
C 15.5596 21.8681 16.3668
C 30.3595 33.1338 15.9208
C 28.245 34.3623 16.19
C 26.0892 35.54 16.0522
H 20.0419 17.3237 15.6256
H 17.8773 18.5538 15.6698
C 33.3329 23.2623 15.9564
C 32.6613 22.0626 16.104
C 33.2126 30.7071 15.5049
C 15.4446 31.76 16.4716
C 16.1093 32.9672 16.3901
C 32.4926 31.9095 15.5558
C 22.5224 36.7479 15.9053
C 23.9287 36.7547 15.877
H 34.3269 28.2201 15.3313
H 34.3505 25.7349 15.3844
H 26.8366 17.3789 15.8197
H 22.2087 16.0881 15.6404
H 15.7191 19.7213 16.1563
H 14.4755 24.3307 16.1105
H 19.8092 36.4369 15.8702
H 17.6798 35.1634 15.9779
H 31.0773 19.8737 15.956
H 14.4122 29.2766 16.2076
H 24.7191 16.1038 15.7919
H 28.9283 18.6553 15.724
H 14.4577 21.8682 16.3908
H 14.4917 26.8087 15.9493
H 30.8563 34.0735 15.6159
H 26.619 36.4635 15.7519
H 34.4305 23.2775 15.8456
H 33.2137 21.1096 16.1295
H 28.7274 35.244 15.7223
H 34.2894 30.7131 15.2761
H 15.5519 33.9171 16.3532
H 14.3439 31.7314 16.4977
H 21.9587 37.6812 15.754
H 33.0047 32.8667 15.3738
H 24.4728 37.6953 15.6974
C 23.4044 20.6579 19.8323
C 19.0802 23.1291 19.8087
C 21.2447 21.9028 19.8424
C 21.9741 20.6717 19.8092
C 26.2689 20.6627 19.6838
C 19.8147 21.9043 19.7611
C 25.543 21.9096 19.7821
C 28.418 21.9211 19.6579
C 24.1164 21.9031 19.8629
C 27.6874 23.1546 19.6543
C 19.065 25.6006 19.9571
C 19.7884 24.3691 19.9272
C 24.1227 19.4137 19.782
C 19.0413 28.082 20.0585
C 17.6297 25.5923 19.8909
C 28.3878 24.3992 19.5822
C 27.7161 20.6731 19.6614
C 17.6082 28.0752 20.0283
C 29.8295 24.4132 19.5311
C 17.6474 23.1179 19.717
C 26.2453 23.1523 19.7675
C 19.7515 29.3199 20.0767
C 25.558 19.4153 19.7304
C 21.9538 23.1401 19.9324
C 19.7755 26.8429 20.0416
C 19.0292 30.553 20.0351
C 29.8579 21.9258 19.6125
C 29.8052 26.91 19.5483
C 28.3691 26.9007 19.6327
C 28.3512 29.3977 19.716
C 16.8939 26.831 19.9844
C 24.0462 31.8341 19.9692
C 21.9032 30.5696 20.0425
C 30.554 23.1718 19.5072
C 16.9233 24.3457 19.7904
C 27.6269 30.6223 19.8148
C 23.3894 23.1409 19.9352
C 25.4729 31.849 19.9342
C 21.2251 24.3737 19.9759
C 21.1778 31.8004 19.9823
C 26.1991 30.611 19.9195
C 27.6562 25.653 19.6132
C 30.5287 25.6663 19.4915
C 21.1913 29.3274 20.0852
C 29.7966 29.4109 19.6091
C 27.6421 28.1412 19.756
C 23.3363 30.5846 20.0276
C 21.2634 19.4285 19.7176
C 16.8782 29.3167 19.9855
C 23.3227 33.0659 19.9055
C 19.0929 20.6595 19.6567
C 17.5927 30.5495 19.9482
C 19.7497 31.7868 20.0055
C 30.5119 28.1592 19.5484
C 21.8878 33.0397 19.879
C 25.5266 24.3889 19.8576
C 21.2032 26.8503 20.0664
C 25.4951 29.3632 19.9726
C 23.3995 18.1466 19.7763
C 28.4539 19.4216 19.7468
C 28.3382 31.8774 19.7694
C 26.2283 25.6438 19.8062
C 26.1754 33.0999 19.8877
C 21.9169 28.0963 20.0859
C 24.0596 29.3513 20.0401
C 26.2145 28.1293 19.9039
C 24.0933 24.3862 19.9539
C 21.9341 25.6143 20.033
C 16.9203 21.8744 19.5819
C 19.8281 19.4303 19.6532
C 26.2846 18.1297 19.7432
C 21.9703 18.1878 19.6883
C 30.5072 30.6518 19.64
C 30.6187 20.6766 19.6397
C 17.6677 20.6591 19.6496
C 24.0302 34.3163 19.8684
C 23.3515 28.1052 20.0633
C 25.5063 26.8801 19.9326
C 15.4368 26.816 20.0689
C 23.3679 25.6217 20.0138
C 31.9714 25.6719 19.445
C 27.605 33.1114 19.8231
C 24.0779 26.8692 20.0207
C 32.0027 23.1765 19.4029
C 15.463 24.3158 19.8726
C 29.7784 31.8865 19.7278
C 29.9003 19.4286 19.7722
C 15.416 29.3248 19.9461
C 25.4598 34.3324 19.8973
C 31.9436 28.1716 19.4808
C 27.7265 18.1761 19.8672
C 19.025 33.0189 19.9362
C 16.8554 31.7824 19.7976
C 21.1701 34.281 19.7787
C 24.1217 16.919 19.6592
C 14.7159 28.0555 20.0969
C 32.6784 24.4366 19.4564
C 14.7628 25.5589 20.1038
C 32.664 26.9288 19.3686
C 25.5541 16.9245 19.6488
C 15.5054 21.8824 19.5319
C 17.5845 33.0246 19.9046
C 32.017 20.7203 19.4184
C 19.739 34.2518 19.7712
C 31.968 30.6741 19.5706
H 19.2836 18.4629 19.7195
H 21.4045 17.2355 19.6868
C 32.6975 21.947 19.2977
C 23.3061 35.58 19.8493
H 17.1127 19.6963 19.6826
C 32.6499 29.4217 19.3974
C 14.7908 23.0799 19.7365
C 21.8767 35.5262 19.7546
H 30.4431 18.481 19.5809
C 14.7376 30.5548 19.8287
C 15.4464 31.7588 19.75
H 28.2849 17.218 19.9092
C 28.3238 34.3766 19.9339
H 23.5678 15.966 19.6341
H 13.613 28.0457 20.0931
C 30.5125 33.1549 19.8066
C 26.1747 35.6114 19.9528
H 33.7833 24.4381 19.5544
H 14.97 20.9307 19.3908
H 13.6779 25.5338 20.3073
H 33.7768 26.9354 19.4388
H 26.0938 15.9641 19.5937
H 32.5769 19.7731 19.3581
H 17.0477 33.9616 19.6379
H 19.1644 35.2041 19.6645
H 33.7875 21.962 19.1493
H 33.7569 29.4234 19.3
H 13.6893 23.0637 19.7853
H 13.6362 30.5588 19.7882
C 32.649 31.9228 19.5318
H 21.3121 36.4787 19.8094
C 24.0199 36.8128 19.8228
H 14.9067 32.7126 19.631
C 27.5982 35.5882 20.0233
C 29.751 34.3586 20.0002
C 31.9265 33.1554 19.675
C 25.4404 36.8239 19.9074
H 33.7519 31.9295 19.4983
H 23.4533 37.7582 19.852
H 28.1425 36.5326 20.1965
H 30.2894 35.3056 20.1756
H 32.4716 34.1115 19.7097
H 25.9796 37.7826 19.9633
H 15.094 20.1125 23.3521
H 21.3417 15.8921 23.5619
H 17.173 18.6903 23.1509
H 19.2386 17.2707 23.3248
H 23.8466 15.7632 23.6263
H 13.9857 22.3908 23.3805
C 21.9494 16.8117 23.4941
C 15.7152 21.0221 23.3443
H 32.7708 20.0583 23.0062
C 17.7856 19.6012 23.2833
C 19.8542 18.1864 23.2775
C 23.3419 16.7389 23.5408
H 26.0251 16.8406 23.4967
H 34.1772 22.1748 22.9492
C 15.0839 22.3122 23.3843
H 34.6897 29.6597 23.1596
H 14.1981 24.9122 23.3612
H 14.7121 32.2813 23.698
H 28.3039 17.9461 23.3179
H 30.5174 18.9897 23.3114
H 16.1094 34.3841 23.6511
H 14.4107 27.364 23.7104
H 34.5353 27.1528 23.0154
H 22.873 37.6687 23.5183
H 33.5801 31.9128 23.3656
H 14.5706 29.7799 23.8307
H 34.3406 24.6803 22.916
C 17.1217 20.8871 23.3264
C 21.301 18.0636 23.3929
H 25.4068 37.4864 23.5632
C 19.2179 19.471 23.3162
H 20.6087 36.5837 23.4276
C 32.2933 21.0487 23.052
C 33.0803 22.2467 23.0043
H 18.3699 35.5177 23.5615
C 25.5518 17.8395 23.4112
C 33.5886 29.7278 23.1903
C 15.2924 24.8095 23.4995
H 31.4985 33.3022 23.5518
C 15.8122 32.2116 23.6705
C 24.1312 17.9096 23.4849
H 27.4545 36.0549 23.4618
H 29.4567 34.6586 23.6524
C 15.8716 23.503 23.3773
C 16.6041 33.3995 23.6049
C 27.7895 18.9305 23.2431
C 32.9672 30.9964 23.3042
C 30.0385 19.978 23.1441
C 23.3542 36.6779 23.5101
C 15.5192 27.2719 23.6895
C 33.4319 27.2307 23.0457
C 15.6701 29.7219 23.6982
C 33.2425 24.7503 22.976
C 24.7818 36.5803 23.5625
C 26.3499 19.0026 23.2567
C 30.8671 21.1373 23.0641
C 21.093 35.5938 23.4081
C 28.6156 20.0979 23.0664
C 16.1053 25.9862 23.5632
C 32.4845 23.5297 23.0125
C 18.8488 34.5201 23.4919
C 22.0912 19.2947 23.3386
C 32.8181 28.5412 23.1724
C 17.9581 22.0961 23.3153
C 16.4252 30.9286 23.5706
C 24.0224 26.6573 23.0796
C 16.3064 28.4495 23.7407
C 20.0265 20.6842 23.305
C 32.6461 26.036 23.0265
C 24.8258 27.8459 23.103
C 30.8945 32.3765 23.4799
C 22.5954 26.7591 23.0988
C 24.646 25.3637 23.0578
C 23.5115 19.2092 23.3473
C 18.0175 33.3302 23.4988
C 26.8226 35.1496 23.4567
C 22.5354 35.5316 23.4435
C 17.3294 23.3962 23.3404
C 28.8407 33.745 23.5725
C 31.551 31.1012 23.3747
C 24.2028 29.1378 23.1261
C 26.253 27.7416 23.1419
C 21.796 25.564 23.1016
C 23.8493 24.1705 23.0501
C 20.2784 34.4315 23.41
C 21.9734 28.0509 23.1461
C 26.0746 25.2581 23.1128
C 25.4152 35.2919 23.4919
C 21.4595 20.5881 23.2578
C 19.3875 21.9857 23.2789
C 22.4184 24.2692 23.0757
C 22.7737 29.244 23.1515
C 26.8829 26.451 23.1706
C 25.7249 20.3066 23.2066
C 29.4763 32.4806 23.523
C 17.5435 25.8786 23.4498
C 27.9688 21.3945 23.0539
C 30.2184 22.4386 23.0703
C 27.4359 33.8767 23.3748
C 31.0151 23.6428 23.0954
C 24.2989 20.399 23.2227
C 24.4743 22.8801 23.0623
C 20.3713 25.6652 23.1727
C 18.1437 24.5811 23.3241
C 17.7239 28.3502 23.522
C 26.7034 23.9588 23.1247
C 20.5489 28.1538 23.219
C 27.0578 28.9237 23.2071
C 21.618 23.0828 23.1238
C 26.5345 21.4887 23.1082
C 25.0115 30.3224 23.1618
C 17.8767 30.8282 23.4761
C 31.3643 28.6233 23.228
C 22.2502 21.781 23.1528
C 20.1939 23.1817 23.1883
C 25.8994 22.7774 23.0739
C 23.6705 21.6863 23.1242
C 31.1921 26.1416 23.1241
C 19.7558 26.9625 23.2491
C 18.6699 32.0225 23.4322
C 19.5707 24.4723 23.2122
C 18.3377 27.0658 23.4042
C 28.7796 22.562 23.0858
C 28.3193 26.3321 23.2647
C 26.4385 30.2103 23.1992
C 23.161 34.1941 23.4105
C 22.1543 30.5332 23.2154
C 30.7321 29.9041 23.3152
C 18.5042 29.5447 23.4197
C 28.1489 23.8477 23.1892
C 30.3963 24.9302 23.1717
C 20.9006 33.1136 23.3598
C 19.9274 29.4481 23.2906
C 30.5667 27.4316 23.2266
C 28.9452 25.0404 23.2562
C 24.596 34.089 23.3963
C 28.493 28.8091 23.2993
C 29.1299 27.5281 23.3122
C 20.7193 30.6372 23.2748
C 24.3869 31.6108 23.2175
C 20.0944 31.9243 23.3479
C 28.6696 31.2894 23.3657
C 22.9646 31.7123 23.252
C 26.6213 32.6787 23.2997
C 22.35 33.012 23.3444
C 27.2449 31.3973 23.2857
C 29.3026 30.0064 23.3225
C 25.1994 32.7975 23.2877
H 23.2112 15.7964 26.6018
H 14.8447 20.8999 27.3681
H 25.7177 15.7161 26.6125
H 32.2238 19.3016 27.105
H 33.5169 21.45 27.206
H 13.6317 23.0919 27.4979
H 15.0756 32.6537 27.5799
H 13.764 30.5053 27.5655
H 19.1006 18.411 27.3086
H 21.1584 17.0973 26.9108
H 16.989 19.6554 27.3556
H 33.6275 26.3692 27.0837
H 19.4002 34.9821 27.5401
H 33.7434 31.2601 27.4925
H 23.7059 37.3425 27.8123
H 33.5803 23.9258 27.0711
H 17.2559 33.8176 27.5609
H 27.8842 16.8939 26.9245
H 30.0525 18.0977 27.0303
H 33.6778 28.8045 27.2819
H 32.5388 33.456 27.6617
H 21.534 36.1747 27.5563
H 26.2123 37.3121 27.7498
H 13.714 28.0392 27.4657
H 13.7016 25.5748 27.66
C 23.8037 16.7247 26.5853
C 25.1867 16.6816 26.6091
C 15.398 21.8473 27.2705
C 31.7083 20.2672 26.9886
C 14.7197 23.0686 27.331
C 32.4265 21.468 27.0535
C 14.8543 30.4949 27.41
C 15.585 31.6892 27.4244
H 30.4397 34.7498 27.5999
H 28.3453 36.0489 27.5572
C 21.7293 18.0433 26.8001
C 19.6116 19.3003 26.8846
C 17.5169 20.5765 27.0352
C 32.655 31.3131 27.3301
C 24.2428 36.4093 27.5835
C 31.9864 32.5351 27.42
C 27.3658 17.8637 26.8159
C 25.6413 36.395 27.5391
C 29.5315 19.0605 26.8989
C 32.4897 23.9501 26.9097
C 32.5588 26.4065 26.7952
C 17.7524 32.8859 27.2254
C 19.9047 34.0651 27.1778
C 14.7646 25.5546 27.367
C 14.7989 28.0203 27.265
C 32.6128 28.8553 26.9842
C 22.0644 35.2357 27.3289
C 23.1248 17.9668 26.6106
C 25.945 17.883 26.6757
C 16.7986 21.8017 27.0491
C 30.2886 20.262 26.8639
C 15.4202 24.3074 27.2171
C 31.7738 22.7248 26.898
C 15.5056 29.2396 27.2064
C 21.0487 19.2718 26.8237
C 16.9899 31.6896 27.1932
C 18.9121 20.5452 26.8799
C 28.1174 19.0657 26.8071
C 29.8788 33.8329 27.3577
C 27.7797 35.1298 27.3396
C 15.4672 26.7856 27.2166
C 24.0098 26.6237 26.1167
C 31.9531 30.1118 27.0328
C 31.8302 25.1872 26.8277
C 23.4845 35.2335 27.3205
C 19.1566 32.8623 27.1051
C 31.8879 27.6601 26.829
C 21.326 34.053 27.1759
C 30.57 32.6158 27.2339
C 26.363 35.185 27.3046
C 23.3219 27.8793 26.1682
C 25.4438 26.5911 26.1284
C 23.2651 25.3976 26.1175
C 28.4827 33.8973 27.2381
C 24.0682 29.1025 26.2217
C 26.1891 27.8157 26.1831
C 23.8598 19.1867 26.4765
C 21.8877 27.9047 26.2272
C 26.13 25.3332 26.1433
C 25.2734 19.1458 26.5063
C 17.5242 23.0322 26.8312
C 21.8333 25.4266 26.1765
C 23.9554 24.1405 26.1148
C 16.8385 24.2777 26.9115
C 29.6064 21.5309 26.6643
C 30.344 22.7533 26.6709
C 16.9311 29.2205 26.9488
C 17.6672 30.4398 26.9239
C 25.5032 29.0708 26.2302
C 21.1439 26.6802 26.2392
C 25.3878 24.1057 26.1286
C 27.4303 20.3369 26.5745
C 21.7623 20.4875 26.5336
C 19.6378 21.7638 26.5952
C 30.5266 30.1638 26.8095
C 16.8854 26.754 26.881
C 24.1835 34.0024 27.0152
C 30.3977 25.2281 26.582
C 29.8403 31.4069 26.9078
C 19.8359 31.6238 26.7828
C 25.6099 33.9753 27.02
C 30.46 27.705 26.5826
C 22.013 32.8132 26.8489
C 21.199 29.1551 26.3462
C 23.3809 30.3526 26.3504
C 27.6213 27.7798 26.261
C 27.5589 25.2971 26.2313
C 21.0912 24.2012 26.2471
C 26.0171 20.3683 26.4114
C 23.2162 22.9161 26.1761
C 23.1737 20.4444 26.3905
C 18.9413 23.0042 26.5738
C 28.1771 21.5601 26.4972
C 17.5649 25.5079 26.7354
C 17.6097 27.9731 26.7441
C 21.0549 21.7295 26.434
C 21.9461 30.3751 26.4156
C 29.6637 24.007 26.4985
C 28.3029 26.5228 26.29
C 21.7851 22.9478 26.2524
C 19.0906 30.4191 26.6936
C 27.7336 32.6849 26.9182
C 19.7142 26.704 26.3817
C 29.7274 26.4857 26.4535
C 26.076 22.8486 26.1959
C 21.26 31.6114 26.6515
C 26.2491 30.2891 26.3725
C 29.7877 28.9539 26.559
C 23.4402 32.7981 26.7604
C 23.9091 21.6624 26.2338
C 19.6654 24.2273 26.4007
C 19.7686 29.1756 26.4834
C 28.2422 24.0388 26.3168
C 25.336 21.6223 26.2409
C 18.9751 25.4801 26.4762
C 27.502 22.8144 26.3023
C 19.0278 27.9527 26.5089
C 24.1285 31.5673 26.5059
C 28.4172 31.4525 26.7303
C 26.3046 32.7328 26.7942
C 28.3645 28.9996 26.3961
C 25.5613 31.5351 26.5205
C 27.6795 30.2505 26.4655
Li 31.6802 21.9124 21.2227
Li 16.8657 32.096 21.8136
Li 16.1713 22.258 21.5662
Li 24.5678 35.776 21.6237
Li 31.6384 31.8735 21.4276
Li 28.7793 33.0097 21.5959
Li 21.8032 34.3618 21.6929
Li 20.8967 18.8237 21.5644
Li 15.5576 28.6117 21.8819
Li 16.3711 25.3415 21.6356
Li 26.9976 19.9629 21.4873
Li 33.1509 28.2288 21.17
Li 33.1697 27.7898 25.1365
Li 31.5622 24.8642 21.3258
Li 18.6156 20.754 21.6313
Li 24.7661 17.8849 21.4591
Li 29.2273 18.6581 21.574
Li 18.4223 34.306 21.4952
Li 29.7862 33.9963 17.8753
Li 31.9153 24.8825 24.8126
Li 27.206 35.4781 17.9246
Li 27.3967 34.2499 25.3964
Li 18.4138 34.0641 25.5243
Li 21.6896 34.322 25.1611
Li 31.6163 31.653 25.4202
Li 24.7137 35.7892 25.5489
Li 14.9428 25.9901 25.3223
Li 31.5973 21.5641 25.0361
Li 17.991 19.3976 25.3576
Li 14.7859 25.4109 17.9951
Li 23.3826 35.9904 17.8159
Li 21.0955 19.1029 17.7475
Li 32.2576 31.0247 17.5176
Li 15.8027 22.8309 25.3747
Li 27.5623 18.2503 17.7789
Li 15.4361 28.1355 18.1887
Li 33.1689 25.4614 17.713
Li 29.038 20.0519 25.0488
Li 15.88 30.7617 25.5423
Li 18.6227 33.373 18.0241
Li 23.4769 17.7952 17.7448
Li 18.339 19.661 17.9551
Li 29.6291 20.0913 17.8869
Li 29.2423 28.2136 21.3454
Li 32.4271 28.2188 17.5253
Li 20.4333 18.2459 25.2217
Li 27.6875 25.1181 21.5471
Li 20.6433 35.3727 18.0988
Li 27.0043 17.8982 24.8803
Li 26.1901 30.026 21.5605
