615
592nano.out 0 0 0
C 24.062 26.8413 16.2408
C 24.0289 26.7606 19.4774
C 24.7773 28.0764 16.2611
C 25.4524 26.7604 19.4845
C 26.2024 25.6086 16.2548
C 26.1632 25.5281 19.4776
C 26.9158 26.8422 16.2715
C 27.5866 25.5286 19.4704
C 24.0663 29.3119 16.2453
C 24.0333 29.2282 19.4852
C 24.7833 30.5453 16.2334
C 25.457 29.2286 19.496
C 26.2036 28.0747 16.2751
C 26.1654 27.9916 19.4938
C 26.9199 29.3074 16.2667
C 27.5887 27.9923 19.4903
C 24.0186 26.7285 22.7472
C 24.0159 26.6804 25.963
C 24.7323 27.9613 22.7432
C 25.4414 26.6815 25.9471
C 26.1556 25.4977 22.7247
C 26.1557 25.4444 25.9618
C 26.8686 26.729 22.7228
C 27.5828 25.4454 25.9985
C 24.0218 29.1935 22.7476
C 24.0149 29.1531 25.979
C 24.7355 30.4254 22.7368
C 25.4393 29.1544 25.9539
C 26.1574 27.9603 22.7348
C 26.1508 27.9187 25.9402
C 26.8708 29.1895 22.7345
C 27.5789 27.9196 25.9567
C 30.4894 25.6087 16.2334
C 30.4323 25.5262 19.4357
C 31.2022 26.837 16.2397
C 31.8707 25.5283 19.4149
C 30.4334 25.5008 22.5919
C 30.4231 25.4473 26.2106
C 31.1471 26.7364 22.5779
C 31.8666 25.4565 26.371
C 28.3444 26.8407 16.2695
C 28.2969 26.7602 19.475
C 29.0581 28.0713 16.2781
C 29.7236 26.7594 19.458
C 28.2947 26.7306 22.6972
C 28.2926 26.6851 26.0053
C 29.0076 27.961 22.6994
C 29.7162 26.6889 26.0987
C 30.4955 23.1503 16.2274
C 30.4345 23.0609 19.419
C 31.2027 24.3764 16.2123
C 31.8723 23.0722 19.4093
C 30.4365 23.036 22.5954
C 30.441 22.9797 26.2035
C 31.1477 24.2597 22.5671
C 31.8704 22.9939 26.2483
C 28.3464 24.3789 16.2509
C 28.2991 24.2949 19.4522
C 29.0593 25.6111 16.2517
C 29.725 24.2962 19.4351
C 28.2926 24.2691 22.6608
C 28.2959 24.2115 26.0496
C 29.0049 25.5002 22.6593
C 29.7232 24.2143 26.1482
C 30.4909 30.5348 16.3055
C 30.4406 30.4542 19.5091
C 31.2011 31.7942 16.3025
C 31.877 30.442 19.503
C 30.4392 30.4162 22.7249
C 30.4315 30.39 25.9455
C 31.1487 31.66 22.7445
C 31.8788 30.3703 25.9606
C 24.0781 34.2563 16.1866
C 24.0539 34.1667 19.461
C 24.8168 35.4985 16.2004
C 25.4719 34.1702 19.5344
C 26.2139 33.0079 16.0869
C 26.1859 32.9284 19.548
C 26.94 34.2563 15.9416
C 27.6111 32.9245 19.6099
C 24.0228 34.1283 22.6246
C 24.0309 34.0927 26.3266
C 24.7512 35.3676 22.5924
C 25.45 34.1019 26.2837
C 26.1611 32.8804 22.6551
C 26.1666 32.8643 26.1454
C 26.8872 34.1224 22.5635
C 27.5906 32.8656 26.1274
C 28.3575 31.7702 16.1736
C 28.3145 31.6893 19.5507
C 29.0823 33.0173 16.1022
C 29.7397 31.6838 19.5462
C 28.305 31.6485 22.7195
C 28.2904 31.6326 26.003
C 29.0269 32.887 22.7097
C 29.7234 31.6271 25.9605
C 30.4867 28.0634 16.2728
C 30.4338 27.9904 19.4656
C 31.2027 29.301 16.3042
C 31.8725 27.9864 19.4512
C 30.4351 27.9642 22.6576
C 30.4275 27.924 26.0768
C 31.1486 29.1936 22.6823
C 31.8743 27.9224 26.1559
C 24.0744 31.7801 16.2042
C 24.042 31.6941 19.4769
C 24.7977 33.012 16.162
C 25.4668 31.695 19.4997
C 26.21 30.5426 16.2322
C 26.1722 30.4602 19.5077
C 26.9293 31.7763 16.1574
C 27.5959 30.4585 19.5145
C 24.0246 31.6583 22.7197
C 24.0191 31.6244 26.0941
C 24.7411 32.888 22.6765
C 25.4465 31.6296 26.054
C 26.1591 30.4219 22.7309
C 26.1537 30.394 25.9769
C 26.8765 31.6539 22.7062
C 27.578 30.3948 25.9614
C 28.3444 29.3033 16.2757
C 28.3023 29.2236 19.4985
C 29.0577 30.5416 16.2567
C 29.7285 29.2214 19.4902
C 28.2953 29.1887 22.7246
C 28.2892 29.1532 25.9534
C 29.0127 30.4214 22.7302
C 29.7169 29.1463 25.9848
H 14.4247 21.8945 15.7791
H 14.9478 20.8919 19.4844
H 14.3959 21.7969 22.6936
H 14.9393 20.8096 26.5526
H 22.1447 16.0366 15.7617
C 22.6983 16.9805 15.7689
H 23.5487 15.9429 19.5917
H 22.0963 15.9122 22.6698
C 22.6438 16.8594 22.6906
H 23.5023 15.8587 26.1371
H 15.6622 19.7331 15.7211
C 16.2141 20.6766 15.7351
H 17.0792 19.6555 19.564
H 17.8399 18.4664 15.6598
C 18.3813 19.4163 15.6763
H 15.6199 19.646 22.6855
C 16.1667 20.5937 22.6778
H 17.0799 19.5782 26.6427
H 17.7633 18.3878 22.6667
C 18.3148 19.3331 22.6794
H 20.0109 17.2519 15.5968
C 20.5453 18.2065 15.6133
H 21.3946 17.1697 19.6229
H 19.9366 17.1376 22.6363
C 20.4772 18.0871 22.6639
H 21.3626 17.0965 26.49
H 24.6046 16.038 16.0304
H 24.5714 15.9321 22.7406
H 13.6789 25.5134 19.5636
C 14.7723 25.5191 19.5475
H 13.6662 25.4256 26.5349
C 14.7601 25.4353 26.5145
H 13.6968 23.0278 19.5249
H 14.4217 24.3923 15.6675
C 14.7909 23.0284 19.5135
H 13.6881 22.9465 26.5645
H 14.3918 24.2599 22.5868
C 14.782 22.9465 26.5539
H 13.7028 30.5011 19.6166
H 14.4592 31.81 15.7321
C 14.7972 30.5018 19.6088
H 13.6626 30.3978 26.1299
H 14.4028 31.6768 22.8301
C 14.7558 30.3947 26.1675
H 13.6833 28.0203 19.607
H 14.4499 29.3412 15.6553
C 14.777 28.013 19.5901
H 13.6513 27.9091 26.3555
H 14.4002 29.2151 22.8233
C 14.7459 27.9088 26.3436
C 15.518 21.8945 15.7718
C 15.4854 21.8445 19.4892
C 16.1942 23.1465 15.7803
C 16.9099 21.8087 19.4984
C 17.6409 20.626 15.7214
C 17.6301 20.6008 19.5311
C 18.3587 21.8972 15.7929
C 19.04 20.5666 19.6144
C 15.5155 24.3897 15.71
C 15.4637 24.285 19.5538
C 16.2053 25.6193 15.6698
C 16.9045 24.2783 19.5244
C 17.6451 23.1335 15.8229
C 17.6174 23.0514 19.5013
C 18.3606 24.3794 15.8695
C 19.0471 23.0522 19.4965
C 15.4884 21.7861 22.6835
C 15.4769 21.7625 26.5472
C 16.1688 23.0396 22.6663
C 16.9011 21.7334 26.5337
C 17.593 20.5478 22.6483
C 17.6271 20.5253 26.5869
C 18.3072 21.7989 22.6711
C 19.0353 20.5001 26.5996
C 15.4838 24.263 22.6266
C 15.455 24.2049 26.5398
C 16.1627 25.5092 22.5975
C 16.8932 24.2011 26.4626
C 17.6025 23.0298 22.6804
C 17.607 22.9755 26.4608
C 18.3173 24.2691 22.7024
C 19.0376 22.976 26.382
C 21.9431 20.6731 15.7892
C 21.9084 20.5833 19.5501
C 22.6488 21.9091 15.9549
C 23.3319 20.5873 19.5347
C 21.8885 20.5587 22.725
C 21.9064 20.5085 26.3718
C 22.5979 21.7964 22.7568
C 23.3199 20.5062 26.2205
C 19.7992 21.8976 15.8293
C 19.761 21.8224 19.5394
C 20.5017 23.1356 15.9561
C 21.1872 21.8202 19.5133
C 19.7438 21.7956 22.7136
C 19.7535 21.7513 26.4445
C 20.4578 23.03 22.7489
C 21.1827 21.7383 26.3243
C 21.9501 18.1951 15.6625
C 21.9338 18.1206 19.6039
C 22.6746 19.4386 15.7033
C 23.3421 18.1044 19.5949
C 21.8892 18.0727 22.6579
C 21.9065 18.0435 26.4409
C 22.6144 19.3176 22.7014
C 23.3115 18.0151 26.2541
C 19.8027 19.3991 15.6382
C 19.7745 19.355 19.5685
C 20.522 20.6615 15.7382
C 21.1854 19.3282 19.5852
C 19.7314 19.2964 22.6737
C 19.7705 19.2861 26.5298
C 20.4576 20.5569 22.7136
C 21.1857 19.2515 26.5406
C 21.9223 25.6087 16.1444
C 21.8941 25.5267 19.461
C 22.6344 26.8426 16.1987
C 23.3171 25.5271 19.4678
C 21.883 25.497 22.7605
C 21.8788 25.4435 26.0535
C 22.5945 26.7293 22.7577
C 23.3048 25.4429 25.9974
C 15.5445 29.3357 15.7031
C 15.4705 29.2434 19.6288
C 16.234 30.5665 15.7454
C 16.911 29.2492 19.5927
C 17.6637 28.0974 15.8121
C 17.6225 28.0018 19.54
C 18.3729 29.3261 15.88
C 19.0491 27.9981 19.4934
C 15.495 29.2109 22.8215
C 15.428 29.1313 26.2222
C 16.1778 30.4288 22.8217
C 16.8797 29.1472 26.2092
C 17.61 27.9744 22.7717
C 17.5982 27.9087 26.2328
C 18.3207 29.2009 22.7907
C 19.0238 27.9123 26.1601
C 19.7859 26.848 16.0287
C 19.7569 26.7622 19.4666
C 20.4997 28.0836 16.085
C 21.1834 26.7619 19.4612
C 19.7458 26.7333 22.7641
C 19.7391 26.6781 26.1414
C 20.4589 27.9666 22.7751
C 21.1659 26.679 26.063
C 21.929 23.1384 16.0237
C 21.8969 23.0552 19.4768
C 22.6375 24.3742 16.1292
C 23.322 23.0575 19.4732
C 21.8824 23.028 22.7632
C 21.8868 22.9718 26.168
C 22.5948 24.264 22.7619
C 23.3117 22.9709 26.0801
C 15.5311 26.8604 15.7376
C 15.4495 26.7651 19.5722
C 16.2213 28.1041 15.6722
C 16.9047 26.7648 19.5322
C 17.655 25.6134 15.8086
C 17.6201 25.5249 19.5071
C 18.3633 26.8517 15.891
C 19.0462 25.5269 19.4697
C 15.4858 26.7423 22.7029
C 15.4305 26.682 26.4284
C 16.1687 27.9756 22.7729
C 16.8858 26.6811 26.3476
C 17.6114 25.5017 22.6814
C 17.6035 25.4477 26.3578
C 18.3206 26.7372 22.7429
C 19.0312 25.445 26.2347
C 19.7861 24.3728 15.9769
C 19.7597 24.2895 19.4701
C 20.4972 25.6092 16.0626
C 21.182 24.2899 19.4639
C 19.745 24.2667 22.741
C 19.746 24.2115 26.2445
C 20.4559 25.4984 22.7573
C 21.1679 24.2085 26.1445
C 24.062 16.9812 15.9195
C 24.0984 16.8876 19.563
C 24.8131 18.1969 15.9695
C 25.4644 16.8986 19.5081
H 26.0221 15.9569 19.4948
H 26.7387 17.2579 16.2028
C 24.0906 19.4367 15.8836
C 24.0634 19.3495 19.5533
C 24.7931 20.6729 16.0258
C 25.4803 19.3568 19.4938
C 26.2035 18.208 16.1204
C 26.2082 18.121 19.4792
C 26.9384 19.409 16.1822
C 27.6037 18.1447 19.4374
C 24.0129 16.8726 22.7305
C 24.0537 16.8031 26.1475
C 24.7593 18.0911 22.7361
C 25.4478 16.7981 26.0778
H 25.9874 15.8475 26.0181
H 26.7015 17.1641 22.6817
C 24.0328 19.3252 22.7352
C 24.0437 19.2623 26.1854
C 24.7418 20.5614 22.7384
C 25.4658 19.2618 26.1157
C 26.1561 18.1129 22.7037
C 26.2064 18.0119 26.1185
C 26.8818 19.317 22.6541
C 27.607 18.0341 26.2314
H 28.1534 17.1973 19.4341
H 28.1572 17.0823 26.2527
C 30.4999 20.702 16.25
C 30.446 20.5858 19.4066
C 31.2077 21.9048 16.2246
C 31.8804 20.6272 19.4152
C 30.4343 20.594 22.502
C 30.4595 20.505 26.3501
C 31.1476 21.7943 22.5761
C 31.8865 20.5498 26.2931
C 24.0629 24.3746 16.1811
C 24.031 24.2928 19.4685
C 24.7757 25.6081 16.2343
C 25.4531 24.2944 19.4698
C 26.2072 23.1447 16.2112
C 26.1684 23.0611 19.4612
C 26.9196 24.3768 16.2454
C 27.5918 23.0632 19.4475
C 24.0183 24.2637 22.7515
C 24.021 24.2083 26.004
C 24.73 25.4955 22.7423
C 25.4469 24.2098 25.98
C 26.1565 23.0336 22.712
C 26.1649 22.9731 26.0101
C 26.869 24.265 22.7023
C 27.589 22.9751 26.0454
C 28.3616 21.915 16.2571
C 28.3083 21.8293 19.4292
C 29.0686 23.1481 16.2444
C 29.732 21.8351 19.4152
C 28.2952 21.8089 22.5967
C 28.3077 21.7377 26.1455
C 29.0076 23.0343 22.6209
C 29.742 21.7493 26.2279
H 30.2905 18.4419 19.4086
H 31.0521 19.7575 16.2798
H 30.2929 18.3481 26.5003
H 30.9847 19.648 22.4285
C 24.0732 21.9098 16.0449
C 24.0406 21.828 19.4878
C 24.7795 23.1415 16.1561
C 25.4621 21.8278 19.4696
C 26.2081 20.667 16.1572
C 26.1832 20.5924 19.4628
C 26.9251 21.9103 16.2229
C 27.6023 20.5965 19.4314
C 24.0239 21.7975 22.7502
C 24.0292 21.7368 26.0991
C 24.7318 23.0298 22.7448
C 25.4576 21.7352 26.0515
C 26.1607 20.564 22.6943
C 26.1776 20.5029 26.101
C 26.8712 21.7999 22.672
C 27.6005 20.5011 26.1758
C 28.3572 19.4434 16.2138
C 28.3259 19.3528 19.4192
C 29.0903 20.6605 16.2631
C 29.739 19.3885 19.4057
C 28.2902 19.3497 22.5396
C 28.3256 19.2437 26.3035
C 29.0119 20.5605 22.4739
C 29.7404 19.2885 26.4147
H 32.4217 19.6759 19.4274
H 33.1751 20.9878 16.2223
H 32.4328 19.6033 26.2895
H 33.1152 20.877 22.6399
H 14.9542 32.6363 19.5858
H 14.9117 32.5486 26.1599
C 15.554 31.8159 15.7277
C 15.4915 31.6834 19.5903
C 16.2382 33.0073 15.7025
C 16.9186 31.7185 19.5907
C 17.6626 30.567 15.8075
C 17.6256 30.4746 19.577
C 18.3736 31.7947 15.7975
C 19.0541 30.4723 19.5443
H 15.6959 33.9581 15.6868
H 17.0889 33.869 19.6597
C 17.6638 33.0454 15.709
C 17.6379 32.9229 19.6161
C 18.3899 34.2592 15.7289
C 19.0554 32.9559 19.6458
C 15.4975 31.6869 22.8114
C 15.4552 31.6001 26.1879
C 16.1732 32.8754 22.75
C 16.8818 31.6407 26.2631
C 17.6096 30.4373 22.7937
C 17.5924 30.3802 26.2255
C 18.3144 31.666 22.7329
C 19.0307 30.385 26.2328
H 15.6292 33.825 22.7202
H 17.0615 33.7911 26.4343
C 17.6017 32.9164 22.6906
C 17.6093 32.8438 26.3997
C 18.3212 34.126 22.6307
C 19.0192 32.8638 26.498
C 21.9324 30.553 16.1449
C 21.903 30.4656 19.48
C 22.6466 31.7862 16.161
C 23.3269 30.4645 19.4761
C 21.8856 30.431 22.752
C 21.8785 30.3879 26.1098
C 22.5973 31.6626 22.7232
C 23.3047 30.3913 26.0465
C 19.8075 31.7959 15.9147
C 19.7712 31.6998 19.5598
C 20.5228 33.0317 15.9389
C 21.1963 31.7028 19.499
C 19.75 31.6692 22.7114
C 19.7422 31.611 26.3264
C 20.4633 32.9028 22.6537
C 21.1687 31.6213 26.2411
C 21.925 28.0793 16.1755
C 21.8961 27.995 19.471
C 22.6417 29.314 16.2015
C 23.3191 27.9951 19.4774
C 21.8845 27.9646 22.765
C 21.8764 27.9149 26.0283
C 22.5973 29.1955 22.7591
C 23.3024 27.9171 25.9806
C 19.796 29.3221 16.0107
C 19.7641 29.2333 19.5019
C 20.512 30.5562 16.0379
C 21.1861 29.2325 19.4817
C 19.7498 29.1991 22.7783
C 19.7394 29.149 26.1424
C 20.4638 30.4319 22.7581
C 21.1643 29.1512 26.0853
C 21.9212 35.5126 16.1056
C 21.9347 35.3854 19.4289
C 22.6792 36.7236 16.2009
C 23.3306 35.4019 19.4342
C 21.868 35.3757 22.5422
C 21.8908 35.3035 26.485
C 22.6228 36.5898 22.5092
C 23.3027 35.3249 26.4924
H 19.9861 36.4487 15.8916
H 21.3905 36.3355 19.4347
H 19.9247 36.3117 22.4956
H 21.3479 36.2487 26.5857
C 21.9374 33.0223 16.0885
C 21.9141 32.9362 19.4712
C 22.6544 34.2616 16.1472
C 23.3321 32.9332 19.4591
C 21.8862 32.895 22.6719
C 21.8886 32.8539 26.2998
C 22.6003 34.1317 22.6119
C 23.3048 32.8563 26.2282
H 17.8406 35.2049 15.6969
H 17.7715 35.0717 22.606
C 19.803 34.2944 15.8372
C 19.7879 34.1607 19.5462
C 20.5277 35.4979 15.9293
C 21.1967 34.1844 19.4711
C 19.7397 34.1605 22.5923
C 19.7543 34.0691 26.5029
C 20.4677 35.3624 22.5481
C 21.164 34.0998 26.4342
C 32.6379 21.9408 16.2046
C 32.5573 21.8105 19.4155
C 33.3214 23.125 16.1809
H 33.6506 21.8256 19.4279
C 32.6387 24.3828 16.1885
C 32.5483 24.2842 19.4024
C 33.3235 25.5989 16.1863
H 33.6425 24.2852 19.3958
H 34.4165 23.1337 16.1738
C 32.5786 21.8298 22.6064
C 32.5593 21.7423 26.224
C 33.2701 23.0087 22.5763
H 33.6512 21.7561 26.1568
C 32.5907 24.2674 22.5166
C 32.5498 24.2192 26.3171
C 33.2763 25.4945 22.4764
H 33.6444 24.2192 26.3468
H 34.3649 23.0132 22.5843
C 32.6538 29.2851 16.2976
C 32.5519 29.2269 19.4768
C 33.3321 30.5533 16.3187
H 33.6467 29.2248 19.4812
H 34.429 28.0631 16.239
C 32.586 29.1862 22.6485
C 32.5572 29.1471 26.069
C 33.269 30.4435 22.6999
H 33.6518 29.1479 26.0815
H 34.3661 27.9802 22.5184
C 32.6473 26.8327 16.2189
C 32.5494 26.755 19.4217
C 33.334 28.0641 16.239
H 34.4186 25.5953 16.1796
C 32.5945 26.7399 22.5076
C 32.5497 26.6932 26.3087
C 33.2713 27.9762 22.5578
H 34.3701 25.4927 22.4406
H 22.1383 37.6744 16.2084
H 23.5283 37.5615 19.4125
H 22.0787 37.5373 22.4459
H 23.4914 37.4892 26.4879
C 24.0712 36.7141 16.2635
C 24.0829 36.6176 19.4547
H 24.6226 37.6569 16.3316
C 25.4478 36.6272 19.558
C 26.2252 35.4675 16.0874
C 26.1964 35.411 19.636
H 26.7779 36.4153 16.1144
C 27.602 35.388 19.7741
H 25.9947 37.5765 19.5941
C 24.0066 36.5834 22.5392
C 24.0463 36.5449 26.4632
H 24.561 37.526 22.5024
C 25.4245 36.5508 26.4128
C 26.1582 35.3392 22.5886
C 26.1752 35.3401 26.401
H 26.7069 36.286 22.5005
C 27.5932 35.3227 26.4262
H 25.967 37.5017 26.3794
H 30.3083 35.0741 19.718
H 30.2832 35.0342 26.1457
H 28.1452 36.3367 19.8662
H 28.1368 36.2731 26.4806
C 30.4815 32.9958 16.2037
C 30.4539 32.9299 19.5866
H 31.0317 33.9435 16.2199
C 31.8858 32.8872 19.5555
C 30.4347 32.8561 22.741
C 30.4386 32.8854 25.9881
H 30.9832 33.8043 22.7356
C 31.8698 32.8351 25.9396
C 28.3554 34.2197 15.9461
C 28.341 34.1699 19.7329
C 29.7525 34.1305 19.6797
C 28.2979 34.0922 22.6353
C 28.3287 34.1145 26.2633
C 29.7293 34.0896 26.1359
C 32.6351 31.7511 16.3372
C 32.5616 31.7012 19.5263
H 33.1768 32.7011 16.3607
H 33.6557 31.6871 19.527
H 34.4255 30.5525 16.3266
H 32.4283 33.8384 19.576
C 32.5812 31.623 22.7447
C 32.5594 31.6307 25.9239
H 33.1158 32.5768 22.77
H 33.6525 31.6239 25.9041
H 34.3633 30.4361 22.6887
H 32.4193 33.7817 25.9315
H 33.642 26.6944 26.3768
H 19.2228 18.3395 26.5987
H 19.2093 35.0156 26.5857
H 14.3913 26.7457 22.6727
H 28.85 35.039 22.5521
H 33.6432 26.7545 19.4115
H 28.8337 18.402 22.4439
H 19.2289 18.408 19.6184
H 19.2445 35.1099 19.5948
H 28.9083 35.1689 15.8926
H 14.4373 26.8667 15.6691
H 28.9051 18.4978 16.2376
Li 16.8947 21.9426 14.0219
Li 16.0718 25.4027 17.7071
Li 31.1649 31.613 27.7081
Li 19.0372 20.4322 17.5688
Li 31.9155 30.5535 14.5556
Li 22.629 19.1938 17.7592
Li 16.1075 30.3785 27.9661
Li 19.0297 33.0675 24.4799
Li 24.8513 17.9751 27.8975
Li 16.0006 25.3498 24.6293
Li 27.7517 20.6578 14.4653
Li 18.8014 20.5655 24.5355
Li 23.4495 35.5493 14.4402
Li 18.8833 33.1406 17.6236
Li 16.0769 28.2211 17.7297
Li 21.2483 19.1243 24.5106
Li 29.2582 20.2286 24.4735
Li 32.0204 25.5232 24.3493
Li 23.2361 35.4399 24.4138
Li 27.2296 34.7749 24.46
Li 27.3341 34.4788 17.8893
Li 20.6346 34.9201 21.0314
Li 32.8037 28.4387 24.3382
