610
592nano.out 0 0 0
C 24.0576 26.8267 16.2855
C 24.0595 26.7836 19.4948
C 24.7644 28.0633 16.262
C 25.4826 26.7791 19.4913
C 26.2005 25.6029 16.2744
C 26.191 25.5432 19.4782
C 26.907 26.8394 16.2572
C 27.615 25.5399 19.457
C 24.0471 29.2921 16.2177
C 24.0656 29.2496 19.5008
C 24.755 30.5289 16.14
C 25.4887 29.2449 19.5044
C 26.1906 28.0687 16.2448
C 26.196 28.0101 19.4951
C 26.8982 29.3035 16.1715
C 27.6213 28.0052 19.4874
C 24.038 26.7013 22.7521
C 24.0118 26.6677 25.9532
C 24.7505 27.9335 22.7627
C 25.4369 26.6754 25.9733
C 26.1735 25.4697 22.7409
C 26.1536 25.441 25.9874
C 26.8861 26.7016 22.7453
C 27.579 25.4515 26.0618
C 24.0383 29.1668 22.7775
C 24.0018 29.139 25.9926
C 24.7489 30.3996 22.7962
C 25.4256 29.1482 26.011
C 26.1739 27.9327 22.767
C 26.1408 27.9167 26.0067
C 26.8865 29.1662 22.7871
C 27.566 27.9294 26.0717
C 30.4782 25.6197 16.1827
C 30.4599 25.531 19.395
C 31.1845 26.8511 16.1382
C 31.8988 25.5303 19.3577
C 30.4489 25.4798 22.6155
C 30.4185 25.4726 26.3076
C 31.1654 26.708 22.5944
C 31.8618 25.4846 26.421
C 28.3326 26.8441 16.2211
C 28.3284 26.7711 19.4598
C 29.0394 28.0766 16.1551
C 29.7544 26.7668 19.4317
C 28.3125 26.7039 22.7243
C 28.2814 26.6951 26.1194
C 29.0231 27.9341 22.7378
C 29.7014 26.7057 26.2513
C 30.4893 23.1621 16.177
C 30.4556 23.0669 19.3694
C 31.1932 24.39 16.1707
C 31.8916 23.0747 19.3364
C 30.453 23.0173 22.574
C 30.4366 23.0006 26.3679
C 31.1655 24.2477 22.5609
C 31.8673 23.0193 26.5213
C 28.3435 24.3825 16.2264
C 28.3227 24.3057 19.4293
C 29.0496 25.6147 16.2178
C 29.7491 24.304 19.3977
C 28.3092 24.2407 22.6817
C 28.2954 24.2218 26.1233
C 29.0255 25.4742 22.6775
C 29.7195 24.239 26.2528
C 30.4599 30.528 15.8941
C 30.4771 30.4589 19.5812
C 31.1631 31.7733 15.712
C 31.9227 30.4383 19.5738
C 30.4518 30.4011 22.7713
C 30.4042 30.4211 26.2531
C 31.1623 31.6375 22.8237
C 31.8357 30.414 26.3225
C 24.0236 34.2224 15.8775
C 24.0813 34.188 19.5364
C 24.7403 35.461 15.8288
C 25.4989 34.1869 19.5615
C 26.1645 32.9909 15.8803
C 26.2148 32.9435 19.5787
C 26.882 34.2423 15.7205
C 27.642 32.9384 19.6236
C 24.0279 34.1016 22.7234
C 23.9702 34.0647 26.3553
C 24.7551 35.3393 22.6136
C 25.3926 34.0762 26.3705
C 26.1673 32.8665 22.7574
C 26.1222 32.8522 26.2408
C 26.8874 34.1138 22.7312
C 27.5452 32.8686 26.2914
C 28.317 31.7637 15.9174
C 28.3439 31.7008 19.5948
C 29.0295 33.0136 15.7855
C 29.7731 31.6929 19.6364
C 28.3064 31.6225 22.7365
C 28.2638 31.6426 26.2056
C 29.0258 32.868 22.683
C 29.6955 31.6469 26.265
C 30.4684 28.0767 16.1074
C 30.4685 27.9962 19.45
C 31.1759 29.3069 15.9929
C 31.9114 27.9871 19.42
C 30.4509 27.9383 22.6713
C 30.4013 27.951 26.3224
C 31.1664 29.1797 22.7003
C 31.8419 27.9558 26.4935
C 24.0368 31.7543 16.0559
C 24.0719 31.7157 19.5216
C 24.7439 32.9901 15.9427
C 25.4971 31.7101 19.5322
C 26.1814 30.533 16.1111
C 26.2044 30.4769 19.5236
C 26.8896 31.7643 15.9779
C 27.6289 30.4713 19.5409
C 24.0371 31.6321 22.7957
C 23.988 31.6065 26.1092
C 24.7499 32.8667 22.7697
C 25.4151 31.6181 26.1225
C 26.1717 30.3986 22.7947
C 26.1337 30.3899 26.0613
C 26.8824 31.6317 22.7687
C 27.5568 30.4029 26.1004
C 28.3225 29.3048 16.1166
C 28.3358 29.2341 19.5122
C 29.0291 30.5384 15.9832
C 29.7617 29.2251 19.5081
C 28.3088 29.1651 22.7759
C 28.2711 29.1683 26.1113
C 29.0218 30.3998 22.7676
C 29.6949 29.1787 26.2185
H 14.4504 21.8463 16.0304
H 14.9494 20.9681 19.2913
H 14.4108 21.78 22.376
H 14.9308 20.8 26.4842
H 22.1456 16.0302 15.5739
C 22.689 16.9781 15.6268
H 23.5138 15.9802 19.7045
H 22.0812 15.8864 22.7497
C 22.6271 16.8365 22.7497
H 23.5109 15.8582 26.1114
H 15.6858 19.7188 15.7471
C 16.2229 20.6701 15.8122
H 17.0699 19.7304 19.522
H 17.8348 18.5009 15.5172
C 18.3806 19.4449 15.6083
H 15.6329 19.6297 22.456
C 16.1807 20.576 22.4945
H 17.0853 19.5564 26.5574
H 17.7687 18.3668 22.5021
C 18.3207 19.3098 22.558
H 19.993 17.2657 15.4589
C 20.5324 18.2116 15.5644
H 21.3641 17.2224 19.6789
H 19.9369 17.1125 22.4001
C 20.4713 18.0595 22.5247
H 21.385 17.0929 26.5088
H 24.6242 16.0357 15.6781
H 24.5594 15.9119 22.9004
H 13.7228 25.5815 19.2654
C 14.818 25.58 19.2991
H 13.6777 25.4297 26.6374
C 14.7684 25.4331 26.5556
H 13.7173 23.1151 19.2164
H 14.4397 24.3083 16.1401
C 14.8109 23.1049 19.2729
H 13.6847 22.9456 26.5384
H 14.4091 24.2577 22.4186
C 14.7775 22.9486 26.5098
H 13.7337 30.5187 19.5086
H 14.4022 31.7064 15.7733
C 14.8282 30.5192 19.5334
H 13.6684 30.3898 26.4033
H 14.4354 31.6723 22.8618
C 14.7608 30.396 26.3425
H 13.7269 28.0537 19.3445
H 14.4102 29.2348 15.9825
C 14.8223 28.0495 19.3642
H 13.6774 27.9167 26.5904
H 14.4322 29.2222 22.5699
C 14.7683 27.9126 26.5103
C 15.5427 21.8453 15.9664
C 15.4899 21.9189 19.3119
C 16.2205 23.1062 16.0403
C 16.9199 21.8774 19.3958
C 17.6565 20.6426 15.7414
C 17.6265 20.6731 19.4914
C 18.3665 21.8902 15.8876
C 19.0433 20.6288 19.5931
C 15.534 24.315 16.1156
C 15.4965 24.3614 19.3076
C 16.2078 25.5568 16.1331
C 16.9328 24.347 19.36
C 17.6564 23.1064 16.0252
C 17.6354 23.1188 19.4023
C 18.364 24.3396 16.1192
C 19.0631 23.1047 19.4549
C 15.5017 21.7717 22.4547
C 15.4742 21.7493 26.4777
C 16.185 23.0298 22.4733
C 16.8995 21.7137 26.4471
C 17.6044 20.5289 22.5384
C 17.6304 20.5033 26.4811
C 18.3188 21.7785 22.6037
C 19.0377 20.4804 26.4868
C 15.4987 24.259 22.5185
C 15.4539 24.2091 26.5039
C 16.182 25.4937 22.5674
C 16.8957 24.1988 26.3975
C 17.6182 23.0147 22.5906
C 17.6086 22.965 26.3731
C 18.3325 24.2525 22.6606
C 19.0419 22.959 26.2744
C 21.9462 20.6665 15.8906
C 21.9092 20.6225 19.5281
C 22.6527 21.8921 16.0545
C 23.3324 20.6168 19.5264
C 21.8862 20.5313 22.7419
C 21.9127 20.4931 26.2547
C 22.6002 21.7663 22.7726
C 23.327 20.4878 26.1557
C 19.804 21.8881 15.9188
C 19.7696 21.8741 19.5163
C 20.5125 23.1182 16.0864
C 21.1996 21.8582 19.5073
C 19.7539 21.7706 22.6801
C 19.758 21.7308 26.3251
C 20.4689 23.0063 22.7335
C 21.184 21.7223 26.2112
C 21.936 18.1933 15.6413
C 21.91 18.167 19.5959
C 22.6641 19.4347 15.7864
C 23.3189 18.1439 19.6701
C 21.8867 18.0465 22.6466
C 21.9256 18.0411 26.3866
C 22.6 19.2901 22.7402
C 23.3322 18.0131 26.2559
C 19.8053 19.4114 15.6256
C 19.7682 19.4126 19.565
C 20.5232 20.6626 15.8008
C 21.1797 19.376 19.5526
C 19.7372 19.2706 22.5752
C 19.7747 19.2668 26.4147
C 20.463 20.5294 22.6801
C 21.202 19.2484 26.4238
C 21.926 25.5825 16.2555
C 21.922 25.5574 19.4814
C 22.6326 26.8201 16.2744
C 23.3462 25.5516 19.4905
C 21.9 25.4703 22.7538
C 21.8788 25.4259 25.9909
C 22.6136 26.7021 22.7527
C 23.3044 25.4281 25.9594
C 15.5047 29.2398 15.9916
C 15.5067 29.262 19.4468
C 16.1812 30.457 15.8857
C 16.9441 29.2689 19.4751
C 17.6377 28.0243 16.1142
C 17.6539 28.035 19.4241
C 18.3449 29.2526 16.0657
C 19.0813 28.0327 19.4524
C 15.5257 29.2126 22.6266
C 15.449 29.138 26.3988
C 16.2106 30.4241 22.7619
C 16.8856 29.1425 26.2732
C 17.6391 27.9596 22.6422
C 17.6004 27.8963 26.2495
C 18.348 29.1856 22.7302
C 19.0243 27.8936 26.1107
C 19.7817 26.8065 16.2108
C 19.7895 26.7987 19.4485
C 20.4881 28.0415 16.2067
C 21.2141 26.793 19.474
C 19.7656 26.7101 22.7238
C 19.7367 26.66 26.0764
C 20.48 27.9413 22.7447
C 21.1621 26.6601 25.9997
C 21.9357 23.1196 16.1379
C 21.9159 23.0903 19.4869
C 22.643 24.3547 16.2316
C 23.3401 23.0834 19.4873
C 21.8921 23.0022 22.7623
C 21.8891 22.9559 26.0817
C 22.6092 24.2359 22.7613
C 23.3162 22.9555 26.0197
C 15.5204 26.78 16.1205
C 15.5005 26.8133 19.3378
C 16.193 28.0109 16.0793
C 16.9401 26.8088 19.3751
C 17.6493 25.5617 16.1513
C 17.6473 25.5769 19.3842
C 18.3548 26.7981 16.17
C 19.0749 25.5697 19.4259
C 15.5085 26.7322 22.5262
C 15.4483 26.6624 26.5019
C 16.1996 27.9668 22.5258
C 16.8938 26.6627 26.3562
C 17.6259 25.4847 22.6356
C 17.6088 25.4318 26.2953
C 18.3412 26.7157 22.6706
C 19.0284 25.4268 26.1601
C 19.7935 24.3444 16.1537
C 19.7827 24.3363 19.4486
C 20.4995 25.5769 16.2212
C 21.2071 24.3267 19.4747
C 19.7591 24.2445 22.7196
C 19.7466 24.1923 26.1504
C 20.4735 25.4735 22.7397
C 21.1705 24.1903 26.0618
C 24.0755 16.982 15.6859
C 24.0674 16.9236 19.6719
C 24.8213 18.1987 15.7535
C 25.444 16.9166 19.6714
H 25.9862 15.9661 19.6955
H 26.7807 17.2894 15.6086
C 24.0881 19.4369 15.8431
C 24.0522 19.3789 19.5801
C 24.8019 20.6746 15.9808
C 25.4744 19.3696 19.5686
C 26.2319 18.2289 15.743
C 26.1994 18.1273 19.6627
C 26.9599 19.449 15.8188
C 27.6161 18.1441 19.6838
C 24.0023 16.8502 22.8204
C 24.0651 16.7998 26.1899
C 24.7333 18.0643 22.7511
C 25.4421 16.7945 26.2342
H 25.9914 15.8492 26.1748
H 26.6805 17.1402 22.6081
C 24.017 19.2982 22.7556
C 24.0469 19.2487 26.1965
C 24.7381 20.5356 22.7359
C 25.4652 19.2471 26.2283
C 26.1382 18.0934 22.6468
C 26.1813 18.0059 26.3542
C 26.871 19.2952 22.5853
C 27.5989 18.0273 26.4707
H 28.1604 17.1982 19.7686
H 28.1471 17.082 26.5329
C 30.497 20.7188 16.136
C 30.4611 20.593 19.3691
C 31.205 21.9194 16.1567
C 31.8929 20.6303 19.3233
C 30.4417 20.56 22.5278
C 30.4534 20.5184 26.5026
C 31.1654 21.7713 22.5422
C 31.8766 20.5687 26.5684
C 24.0687 24.3607 16.2519
C 24.0546 24.317 19.4864
C 24.7747 25.5958 16.283
C 25.4784 24.312 19.4779
C 26.2116 23.1385 16.1997
C 26.1884 23.0752 19.465
C 26.9182 24.3745 16.2457
C 27.6112 23.0731 19.436
C 24.0337 24.2358 22.7591
C 24.0226 24.1952 25.9695
C 24.7488 25.4676 22.75
C 25.449 24.2014 25.9767
C 26.1705 23.0037 22.73
C 26.1684 22.9655 26.0242
C 26.8859 24.2366 22.7237
C 27.5902 22.9776 26.1031
C 28.3616 21.9216 16.1332
C 28.3256 21.8369 19.4235
C 29.0635 23.1516 16.189
C 29.7505 21.8411 19.3855
C 28.3096 21.7774 22.618
C 28.3058 21.7438 26.2323
C 29.0199 23.0075 22.6312
C 29.7377 21.7619 26.3672
H 30.3077 18.4466 19.4407
H 31.0497 19.7737 16.1362
H 30.2988 18.3593 26.614
H 30.9986 19.6223 22.4358
C 24.081 21.8969 16.0939
C 24.0497 21.8486 19.4967
C 24.7873 23.1304 16.1949
C 25.4764 21.8425 19.4835
C 26.2247 20.6853 15.9802
C 26.1917 20.6072 19.5064
C 26.9333 21.9107 16.1134
C 27.6176 20.6042 19.4813
C 24.0273 21.7707 22.7673
C 24.0353 21.7238 26.0536
C 24.7437 23.0006 22.7591
C 25.4626 21.7243 26.0548
C 26.1546 20.5415 22.6657
C 26.1776 20.4913 26.1685
C 26.8811 21.7709 22.6798
C 27.5997 20.4995 26.2723
C 28.366 19.4764 15.9488
C 28.3472 19.3566 19.5462
C 29.0882 20.6845 16.0814
C 29.7544 19.392 19.443
C 28.2964 19.3133 22.6378
C 28.3264 19.245 26.4408
C 29.0339 20.5275 22.5271
C 29.7418 19.2947 26.5093
H 32.4335 19.6785 19.306
H 33.1778 21.0065 16.1343
H 32.4213 19.6224 26.6309
H 33.1304 20.8586 22.5155
H 14.9708 32.646 19.779
H 14.9041 32.5233 26.1652
C 15.496 31.7148 15.7726
C 15.5114 31.6998 19.6797
C 16.1802 32.9104 15.6881
C 16.9489 31.737 19.7188
C 17.6283 30.4814 15.9255
C 17.6555 30.4901 19.5766
C 18.3325 31.7139 15.8454
C 19.0863 30.4984 19.5456
H 15.6312 33.8538 15.6152
H 17.1197 33.8871 19.8089
C 17.6171 32.9638 15.7126
C 17.6668 32.9443 19.7097
C 18.3225 34.1708 15.6609
C 19.0803 32.977 19.6539
C 15.529 31.6801 22.8609
C 15.4437 31.5726 26.2137
C 16.214 32.8604 22.9344
C 16.8746 31.6101 26.1527
C 17.6437 30.4265 22.7848
C 17.5893 30.3653 26.1592
C 18.3521 31.6483 22.8557
C 19.0125 30.365 26.0877
H 15.6757 33.8114 23.0001
H 17.0329 33.7553 26.0904
C 17.6446 32.897 22.9175
C 17.5816 32.8083 26.1047
C 18.3574 34.0954 22.9379
C 18.9934 32.8405 26.1094
C 21.9031 30.5138 16.1182
C 21.9322 30.4902 19.5133
C 22.61 31.7457 16.0429
C 23.3568 30.487 19.5084
C 21.9056 30.4045 22.792
C 21.8598 30.3663 26.0303
C 22.6158 31.6358 22.8023
C 23.2832 30.372 26.0332
C 19.7617 31.7272 15.9265
C 19.7957 31.7256 19.5879
C 20.4634 32.963 15.8423
C 21.2219 31.7253 19.5604
C 19.7744 31.6462 22.843
C 19.7161 31.5936 26.081
C 20.4841 32.876 22.8626
C 21.1402 31.5982 26.0797
C 21.9154 28.0495 16.243
C 21.9276 28.0234 19.4852
C 22.6218 29.2846 16.2074
C 23.3518 28.019 19.4948
C 21.9039 27.9375 22.755
C 21.8688 27.8959 25.9779
C 22.6163 29.1689 22.7708
C 23.2951 27.9012 25.9647
C 19.7711 29.2666 16.1239
C 19.7956 29.2617 19.4897
C 20.4778 30.504 16.0659
C 21.2189 29.2591 19.4917
C 19.7735 29.1778 22.7625
C 19.73 29.1278 26.0567
C 20.4842 30.4082 22.7999
C 21.152 29.1297 26.0079
C 21.8744 35.4563 15.7691
C 21.9622 35.4141 19.5999
C 22.6186 36.6769 15.8009
C 23.3628 35.4263 19.5259
C 21.8871 35.3475 22.8072
C 21.83 35.2805 26.369
C 22.6355 36.5658 22.7385
C 23.2236 35.3012 26.4631
H 19.9155 36.3736 15.6598
H 21.4229 36.3664 19.6395
H 19.9497 36.2815 22.8985
H 21.279 36.2251 26.4166
C 21.8904 32.9732 15.9091
C 21.9428 32.9553 19.595
C 22.6053 34.2174 15.8492
C 23.3625 32.9543 19.5459
C 21.9025 32.8724 22.8245
C 21.8447 32.8302 26.1643
C 22.6126 34.1061 22.7864
C 23.2625 32.8317 26.2023
H 17.7678 35.1099 15.5747
H 17.8115 35.0444 22.9758
C 19.733 34.2121 15.715
C 19.8091 34.183 19.6788
C 20.4633 35.4279 15.7108
C 21.2233 34.2079 19.69
C 19.7661 34.1238 22.902
C 19.71 34.0457 26.1617
C 20.4942 35.3313 22.8782
C 21.1115 34.0742 26.2283
C 32.6394 21.959 16.1399
C 32.5734 21.8146 19.3118
C 33.3201 23.1426 16.1238
H 33.6669 21.8264 19.2889
C 32.6315 24.4011 16.1385
C 32.5727 24.2876 19.3264
C 33.3095 25.6183 16.1128
H 33.6668 24.2856 19.2968
H 34.4145 23.1537 16.1007
C 32.592 21.8091 22.5256
C 32.5552 21.7655 26.5722
C 33.289 23.0031 22.5124
H 33.6473 21.7766 26.6372
C 32.61 24.2629 22.508
C 32.5507 24.2531 26.4717
C 33.2981 25.481 22.4963
H 33.6409 24.2575 26.5754
H 34.3826 23.0053 22.4973
C 32.6144 29.3008 15.9656
C 32.5975 29.2203 19.4726
C 33.2896 30.5579 15.8544
H 33.6916 29.2174 19.4605
H 34.3981 28.0923 16.0191
C 32.6063 29.1783 22.6488
C 32.5205 29.1946 26.4312
C 33.2844 30.4306 22.7506
H 33.6134 29.1995 26.4989
H 34.3908 27.9573 22.534
C 32.6249 26.8535 16.1016
C 32.583 26.7558 19.3611
C 33.3029 28.0878 16.0365
H 34.4049 25.6205 16.0887
C 32.6168 26.7113 22.5239
C 32.5334 26.7215 26.4873
C 33.2969 27.9535 22.562
H 34.3923 25.4784 22.4569
H 22.0645 37.6203 15.7895
H 23.5605 37.585 19.4306
H 22.0859 37.5123 22.7542
H 23.4142 37.4606 26.6769
C 23.9894 36.6766 15.833
C 24.1125 36.6411 19.471
H 24.5393 37.6224 15.8495
C 25.4827 36.6448 19.4965
C 26.1432 35.4479 15.7716
C 26.2288 35.4281 19.5787
H 26.6822 36.3999 15.7224
C 27.6385 35.4046 19.6374
H 26.0348 37.5896 19.4731
C 24.0036 36.566 22.628
C 23.97 36.5223 26.5997
H 24.5573 37.5063 22.5472
C 25.3502 36.5323 26.5987
C 26.1577 35.3209 22.6862
C 26.1162 35.3218 26.4872
H 26.7029 36.2689 22.6374
C 27.516 35.3236 26.4789
H 25.8963 37.4759 26.6831
H 30.3341 35.0963 19.7762
H 30.2238 35.0535 26.5108
H 28.1843 36.3528 19.6494
H 28.0451 36.2816 26.5183
C 30.4431 32.9811 15.7149
C 30.4867 32.947 19.71
H 30.9896 33.9237 15.6072
C 31.923 32.8951 19.7196
C 30.4367 32.8375 22.7939
C 30.4083 32.8927 26.3705
H 30.9826 33.7882 22.8363
C 31.8345 32.8561 26.288
C 28.2987 34.2184 15.729
C 28.3711 34.1912 19.6809
C 29.7806 34.1538 19.7217
C 28.2948 34.0811 22.7168
C 28.2589 34.1243 26.4497
C 29.6806 34.1025 26.4983
C 32.6013 31.7386 15.7246
C 32.6061 31.6994 19.6538
H 33.1397 32.6869 15.628
H 33.6995 31.6913 19.6492
H 34.3844 30.5592 15.8628
H 32.4716 33.8401 19.7728
C 32.5879 31.6066 22.8527
C 32.5183 31.666 26.2756
H 33.1222 32.5584 22.9224
H 33.6126 31.6561 26.2532
H 34.3789 30.4305 22.7241
H 32.3789 33.8046 26.2393
H 33.6239 26.7267 26.5894
H 19.2378 18.3239 26.5793
H 19.1586 34.9911 26.1806
H 14.4187 26.7383 22.4268
H 28.8441 35.0305 22.7121
H 33.6769 26.7508 19.3355
H 28.8322 18.3685 22.4872
H 19.2158 18.4709 19.6382
H 19.266 35.1295 19.7632
H 28.8402 35.1648 15.6307
H 14.4259 26.7731 16.1179
H 28.9231 18.5328 15.8907
Li 31.1964 31.7956 17.7981
Li 16.0676 23.0016 24.5763
Li 23.2578 18.088 17.5794
Li 24.6518 35.4747 24.6608
Li 31.9439 23.0747 24.4091
Li 16.8688 31.8463 17.6487
Li 27.0507 34.2492 17.7749
Li 21.056 34.364 17.6366
Li 32.0334 27.8604 24.4495
Li 15.9451 27.8399 24.5608
Li 18.8554 20.4558 24.4383
Li 29.2817 20.3632 24.5662
Li 19.0264 20.3979 17.5635
Li 27.1915 18.6243 17.699
Li 20.7912 18.3651 24.5629
Li 27.1833 18.4312 24.459
Li 29.3808 33.713 24.522
Li 20.8992 35.0524 24.6028
