634
592nano.out 0 0 0
C 24.0644 26.8318 15.994
C 24.051 26.7764 19.2041
C 24.7742 28.0739 15.9767
C 25.4838 26.7787 19.2716
C 26.2132 25.6035 15.9543
C 26.2003 25.5398 19.2973
C 26.9235 26.845 15.9472
C 27.623 25.5421 19.3543
C 24.0533 29.3078 15.9287
C 24.0536 29.2595 19.2225
C 24.7625 30.5457 15.845
C 25.4837 29.2621 19.2891
C 26.203 28.0785 15.9574
C 26.1936 28.0175 19.3189
C 26.9126 29.3191 15.8892
C 27.6191 28.0212 19.3849
C 24.0404 26.7187 23.0465
C 24.0189 26.677 26.2344
C 24.7546 27.9625 23.0122
C 25.4496 26.6786 26.2426
C 26.1933 25.4771 22.9561
C 26.1642 25.4411 26.2745
C 26.9059 26.7194 22.938
C 27.5915 25.4423 26.3533
C 24.0378 29.2003 23.0466
C 24.0162 29.1527 26.2889
C 24.7471 30.4379 22.9894
C 25.4453 29.1552 26.2885
C 26.183 27.9599 22.9507
C 26.1616 27.9181 26.2689
C 26.8916 29.1967 22.9107
C 27.5886 27.9203 26.3346
C 30.4936 25.6262 15.6507
C 30.4648 25.5491 19.4069
C 31.2064 26.8697 15.6213
C 31.8964 25.551 19.3675
C 30.4814 25.4856 22.943
C 30.4248 25.4445 26.6571
C 31.1945 26.7295 22.9217
C 31.8589 25.4473 26.8398
C 28.3514 26.8525 15.8673
C 28.3314 26.7861 19.3942
C 29.0577 28.0938 15.8099
C 29.7615 26.7915 19.4218
C 28.3295 26.7225 22.9072
C 28.3016 26.6815 26.39
C 29.0401 27.9643 22.8646
C 29.7243 26.6812 26.5414
C 30.5029 23.1575 15.5209
C 30.4935 23.0697 19.3735
C 31.2133 24.3869 15.5283
C 31.9417 23.0692 19.3984
C 30.4821 23.0091 22.8952
C 30.439 22.971 26.7429
C 31.1981 24.2439 22.9532
C 31.8668 22.9708 26.9101
C 28.3591 24.3812 15.7801
C 28.34 24.2972 19.3608
C 29.0681 25.6192 15.7839
C 29.7678 24.3021 19.3849
C 28.3391 24.2477 22.8992
C 28.304 24.2044 26.4497
C 29.0548 25.4837 22.9167
C 29.7253 24.2111 26.6043
C 30.4735 30.5743 15.6064
C 30.4728 30.5063 19.4855
C 31.1779 31.8252 15.4896
C 31.914 30.5078 19.4765
C 30.4599 30.4405 22.7613
C 30.4398 30.3959 26.6083
C 31.1792 31.6873 22.728
C 31.8791 30.3883 26.7343
C 24.0396 34.2426 15.4544
C 24.0475 34.217 19.3062
C 24.7616 35.4832 15.3181
C 25.4781 34.2256 19.2563
C 26.1785 33.0094 15.5457
C 26.202 32.9794 19.3059
C 26.9041 34.2625 15.3837
C 27.6387 32.9789 19.3656
C 24.0298 34.1533 22.8687
C 24.0191 34.0912 26.6813
C 24.7489 35.4007 22.8266
C 25.4419 34.0932 26.7026
C 26.1703 32.9045 22.9565
C 26.1561 32.8591 26.5929
C 26.8861 34.1502 23.0478
C 27.5752 32.8653 26.6595
C 28.33 31.7906 15.6617
C 28.3382 31.7384 19.4267
C 29.0449 33.0459 15.556
C 29.7652 31.7426 19.4776
C 28.3138 31.6686 22.8414
C 28.2923 31.6323 26.5537
C 29.0372 32.9165 22.8214
C 29.7309 31.6321 26.6131
C 30.4854 28.1013 15.6837
C 30.4647 28.0314 19.4624
C 31.1946 29.3504 15.5869
C 31.9083 28.0487 19.4685
C 30.4716 27.9663 22.835
C 30.4288 27.9221 26.6122
C 31.1809 29.2106 22.7737
C 31.8677 27.9291 26.7958
C 24.0432 31.777 15.7399
C 24.0552 31.7426 19.2632
C 24.7573 33.0093 15.5872
C 25.481 31.7399 19.2982
C 26.192 30.5502 15.8257
C 26.1924 30.4986 19.3279
C 26.9023 31.786 15.6905
C 27.6231 30.5024 19.3998
C 24.0244 31.6821 22.9745
C 24.0166 31.6228 26.4472
C 24.742 32.9127 22.9361
C 25.4433 31.627 26.4507
C 26.1745 30.4339 22.9301
C 26.1574 30.3929 26.3685
C 26.8897 31.6753 22.9092
C 27.5849 30.395 26.4192
C 28.339 29.3246 15.8229
C 28.3309 29.2665 19.4246
C 29.0439 30.5674 15.715
C 29.7547 29.2672 19.4661
C 28.3247 29.1961 22.8589
C 28.2994 29.1599 26.4018
C 29.0324 30.4356 22.8159
C 29.7239 29.1574 26.5213
H 14.4537 21.846 15.2689
H 14.9422 20.8503 19.3745
H 14.3934 21.7527 22.7303
H 14.9227 20.7915 26.7682
H 22.1597 15.9964 15.3155
C 22.699 16.9464 15.3733
H 23.5245 15.9381 19.4083
H 22.1172 15.8482 22.9503
C 22.6516 16.8011 22.912
H 23.4877 15.8626 26.8754
H 15.6905 19.6867 15.3691
C 16.2336 20.6343 15.4132
H 17.1014 19.6263 19.3817
H 17.8462 18.4386 15.392
C 18.3905 19.3842 15.4633
H 15.6328 19.5929 22.7119
C 16.1795 20.5401 22.7278
H 17.0747 19.5527 26.7939
H 17.7544 18.3428 22.9232
C 18.3132 19.2822 22.8834
H 20.0008 17.2197 15.2875
C 20.54 18.1681 15.3767
H 21.3762 17.1758 19.153
H 19.917 17.0835 23.2271
C 20.4602 18.0248 23.1148
H 21.3443 17.1024 26.875
H 24.6479 16.0183 15.382
H 24.6018 15.8729 22.7028
H 13.6575 25.4894 18.8451
C 14.7393 25.5055 19.0015
H 13.6651 25.4173 26.9746
C 14.7556 25.422 26.8831
H 13.6877 22.985 19.0595
H 14.4521 24.3302 15.2205
C 14.7773 23.0007 19.1583
H 13.6711 22.9427 26.8537
H 14.3825 24.2305 22.9897
C 14.7636 22.9436 26.8042
H 13.6593 30.5202 19.1533
H 14.3987 31.713 15.2524
C 14.7514 30.5082 19.2071
H 13.6698 30.3714 27.0563
H 14.355 31.6586 23.04
C 14.7627 30.3737 27.0108
H 13.6493 28.0163 18.8415
H 14.4251 29.228 15.2267
C 14.7297 28.0088 19.0021
H 13.661 27.8928 27.0181
H 14.3643 29.1598 23.0808
C 14.752 27.8918 26.9417
C 15.5443 21.8431 15.3443
C 15.4793 21.8012 19.3236
C 16.2237 23.0922 15.3848
C 16.8956 21.7842 19.4131
C 17.6587 20.5938 15.4822
C 17.6404 20.5786 19.3594
C 18.3706 21.855 15.5751
C 19.047 20.5714 19.4176
C 15.5424 24.3297 15.3104
C 15.4361 24.242 19.1305
C 16.2291 25.5531 15.2844
C 16.8929 24.2612 19.2621
C 17.6612 23.0882 15.5293
C 17.6156 23.0327 19.3544
C 18.3761 24.3307 15.5989
C 19.0434 23.0479 19.3582
C 15.488 21.7481 22.7473
C 15.4626 21.7426 26.7577
C 16.1673 22.9881 22.7792
C 16.8848 21.7122 26.7067
C 17.5886 20.5047 22.7578
C 17.6175 20.5004 26.7257
C 18.3131 21.7571 22.7865
C 19.0216 20.4875 26.7647
C 15.4773 24.2302 22.9485
C 15.4406 24.2011 26.8026
C 16.17 25.456 23.0272
C 16.8829 24.1959 26.6861
C 17.607 22.9936 22.8185
C 17.5959 22.9658 26.6448
C 18.3229 24.2284 22.9073
C 19.029 22.967 26.5539
C 21.9481 20.639 15.6247
C 21.916 20.5903 19.3006
C 22.6555 21.8763 15.753
C 23.3406 20.5821 19.3392
C 21.8979 20.5068 22.9282
C 21.894 20.5079 26.6742
C 22.6106 21.7468 22.9183
C 23.3136 20.4994 26.5964
C 19.809 21.8588 15.654
C 19.7668 21.8193 19.3772
C 20.513 23.0999 15.774
C 21.1948 21.8161 19.3257
C 19.7454 21.7527 22.861
C 19.7433 21.7406 26.6215
C 20.4611 22.9901 22.9127
C 21.1707 21.7342 26.5555
C 21.9432 18.1581 15.4082
C 21.9224 18.1237 19.2441
C 22.6662 19.4066 15.5208
C 23.3403 18.0921 19.4136
C 21.9041 17.9969 22.9986
C 21.89 18.0486 26.8042
C 22.6222 19.2651 22.9203
C 23.3068 18.0217 26.826
C 19.8092 19.3634 15.4429
C 19.7837 19.3618 19.2782
C 20.5286 20.6259 15.5704
C 21.2026 19.343 19.2112
C 19.7162 19.2467 22.9705
C 19.759 19.2786 26.734
C 20.4541 20.5074 22.9223
C 21.1693 19.2568 26.8281
C 21.9277 25.5839 15.9287
C 21.8942 25.5304 19.2051
C 22.6346 26.8259 15.9643
C 23.3318 25.532 19.1461
C 21.8843 25.4733 23.0283
C 21.8768 25.4373 26.2942
C 22.6001 26.717 23.0599
C 23.3061 25.4379 26.2533
C 15.516 29.2436 15.3096
C 15.4171 29.2741 19.1494
C 16.1838 30.4894 15.3554
C 16.8775 29.267 19.2621
C 17.6603 28.0397 15.4657
C 17.5912 28.017 19.2723
C 18.3495 29.2779 15.586
C 19.0278 28.0173 19.2694
C 15.4582 29.1765 23.0329
C 15.4402 29.1249 26.9526
C 16.1349 30.4314 23.0141
C 16.8813 29.1351 26.8306
C 17.6046 27.952 22.9963
C 17.5968 27.8947 26.6986
C 18.3064 29.2015 23.0225
C 19.0205 27.9024 26.5334
C 19.787 26.8118 15.765
C 19.748 26.7696 19.2606
C 20.4902 28.0558 15.8281
C 21.1702 26.7712 19.2206
C 19.7443 26.7126 22.9962
C 19.7326 26.671 26.4285
C 20.4515 27.9584 23.0399
C 21.1607 26.6733 26.3252
C 21.9388 23.1073 15.8358
C 21.9056 23.0565 19.2883
C 22.6462 24.3487 15.9222
C 23.3353 23.0554 19.2739
C 21.8928 22.9867 22.9434
C 21.8821 22.9667 26.4073
C 22.6034 24.2219 23.0015
C 23.3112 22.9651 26.3628
C 15.543 26.7875 15.3259
C 15.4048 26.7572 19.0775
C 16.2168 28.0273 15.2819
C 16.8694 26.7661 19.2402
C 17.6734 25.5603 15.471
C 17.5995 25.5135 19.2791
C 18.3682 26.8034 15.576
C 19.0349 25.5245 19.2952
C 15.4775 26.7011 22.9563
C 15.4341 26.6499 26.8784
C 16.1684 27.9487 22.9953
C 16.8838 26.6572 26.7355
C 17.6113 25.4689 22.9577
C 17.597 25.4328 26.6194
C 18.3129 26.7089 22.9765
C 19.0206 25.4347 26.4807
C 19.7964 24.3339 15.7581
C 19.7499 24.2935 19.3106
C 20.5017 25.5768 15.8326
C 21.1851 24.2927 19.2707
C 19.7488 24.2263 22.9348
C 19.737 24.2016 26.4466
C 20.4561 25.4734 22.9887
C 21.1649 24.2005 26.3638
C 24.0888 16.9583 15.4044
C 24.0747 16.8837 19.4123
C 24.8213 18.1768 15.458
C 25.4665 16.8807 19.4278
H 26.0148 15.9344 19.415
H 26.7892 17.2684 15.3748
C 24.088 19.4163 15.5324
C 24.0526 19.3426 19.4011
C 24.7986 20.6604 15.6214
C 25.4764 19.338 19.4312
C 26.2373 18.2107 15.4443
C 26.1979 18.0844 19.43
C 26.948 19.422 15.431
C 27.6197 18.107 19.3065
C 24.0509 16.8133 22.7699
C 24.0415 16.8041 26.8155
C 24.7775 18.0282 22.7554
C 25.4285 16.7938 26.7401
H 25.9713 15.8441 26.7441
H 26.7526 17.1292 22.6885
C 24.0502 19.2761 22.8307
C 24.0303 19.2597 26.6886
C 24.7547 20.5196 22.8289
C 25.4512 19.2498 26.6472
C 26.1957 18.0695 22.7379
C 26.1752 17.9979 26.7024
C 26.8958 19.2809 22.7271
C 27.593 18.0171 26.6641
H 28.1547 17.1552 19.2331
H 28.1375 17.0702 26.7099
C 30.4937 20.6959 15.4724
C 30.5205 20.5708 19.2388
C 31.2187 21.9145 15.3937
C 31.9296 20.6132 19.3121
C 30.4612 20.5428 22.9004
C 30.4555 20.4836 26.8198
C 31.2074 21.7571 22.8948
C 31.8694 20.5253 26.9133
C 24.0742 24.356 15.9388
C 24.0514 24.2911 19.2238
C 24.7841 25.597 15.9823
C 25.4872 24.2934 19.2774
C 26.2201 23.1334 15.8085
C 26.1955 23.0616 19.3211
C 26.9315 24.372 15.8676
C 27.631 23.0614 19.3386
C 24.044 24.2277 22.9972
C 24.0226 24.201 26.2809
C 24.7606 25.4754 23.0137
C 25.4522 24.2014 26.2892
C 26.1856 23.0038 22.8883
C 26.1669 22.965 26.3676
C 26.9033 24.2436 22.9131
C 27.5939 22.9678 26.4458
C 28.361 21.9215 15.5608
C 28.3465 21.8232 19.3255
C 29.0728 23.1508 15.6331
C 29.7853 21.8281 19.3179
C 28.3247 21.7821 22.8371
C 28.3058 21.7309 26.575
C 29.0495 23.0136 22.8741
C 29.737 21.735 26.7165
H 30.3144 18.4065 18.9201
H 31.041 19.7506 15.4003
H 30.2895 18.3213 26.8126
H 30.9992 19.5896 22.9994
C 24.0818 21.8867 15.7538
C 24.0558 21.8171 19.3268
C 24.7922 23.1245 15.8495
C 25.4805 21.819 19.3436
C 26.2194 20.6704 15.57
C 26.1929 20.5796 19.3802
C 26.9357 21.9044 15.6568
C 27.6262 20.5743 19.3251
C 24.0379 21.7532 22.8911
C 24.0273 21.73 26.4459
C 24.7572 22.9932 22.9189
C 25.453 21.7285 26.4352
C 26.1824 20.5321 22.7866
C 26.1672 20.4908 26.5438
C 26.898 21.7664 22.835
C 27.5968 20.4887 26.5917
C 28.3637 19.4575 15.4884
C 28.3455 19.3078 19.2498
C 29.0868 20.6698 15.42
C 29.7746 19.3428 19.0876
C 28.3136 19.3183 22.9017
C 28.3246 19.2265 26.6891
C 29.0422 20.5418 22.8496
C 29.7378 19.263 26.7486
H 32.4864 19.6725 19.2781
H 33.1813 21.001 15.3152
H 32.4164 19.5794 26.9648
H 33.1582 20.8326 22.9744
H 14.9151 32.6637 19.3738
H 14.9199 32.5191 27.0829
C 15.4907 31.7285 15.2994
C 15.4594 31.7161 19.3184
C 16.1747 32.9483 15.3161
C 16.8693 31.7436 19.3455
C 17.6237 30.5119 15.4967
C 17.5991 30.4996 19.3019
C 18.3216 31.7551 15.5222
C 19.0273 30.4922 19.2792
H 15.6175 33.8864 15.2502
H 17.0862 33.9204 19.2401
C 17.5962 33.0057 15.3651
C 17.617 32.9615 19.2177
C 18.3247 34.2255 15.3095
C 19.0441 32.9639 19.2453
C 15.4473 31.6643 23.0377
C 15.4599 31.5679 27.0267
C 16.1392 32.8887 23.0807
C 16.8785 31.6008 26.9837
C 17.5831 30.4383 23.0205
C 17.5935 30.3648 26.8295
C 18.2885 31.6837 23.0468
C 19.0242 30.3715 26.6775
H 15.5794 33.8283 23.0986
H 17.0696 33.7642 27.1032
C 17.5499 32.9421 23.0861
C 17.6064 32.8267 26.9013
C 18.2876 34.1911 23.072
C 19.022 32.8426 26.8815
C 21.9046 30.5375 15.8269
C 21.8989 30.4993 19.2214
C 22.6164 31.7732 15.741
C 23.3371 30.5027 19.2218
C 21.878 30.4449 23.0654
C 21.8725 30.3823 26.4379
C 22.5972 31.6869 22.9924
C 23.3017 30.3865 26.3719
C 19.7567 31.7669 15.639
C 19.7581 31.7256 19.2795
C 20.4699 33.0078 15.5616
C 21.1875 31.7415 19.2692
C 19.7252 31.6898 23.0398
C 19.739 31.5982 26.7116
C 20.4436 32.9355 23.0009
C 21.1595 31.6125 26.5919
C 21.9153 28.0613 15.9223
C 21.8912 28.0156 19.1959
C 22.6234 29.304 15.9103
C 23.3323 28.0142 19.1991
C 21.8763 27.9593 23.0758
C 21.8733 27.911 26.3123
C 22.5934 29.207 23.1251
C 23.302 27.9137 26.2611
C 19.7716 29.2917 15.748
C 19.7343 29.2507 19.2561
C 20.4741 30.5327 15.7648
C 21.1769 29.2552 19.2154
C 19.7318 29.2072 23.045
C 19.7317 29.14 26.5224
C 20.4384 30.4492 23.0501
C 21.1576 29.1457 26.4057
C 21.8919 35.4904 15.3752
C 21.904 35.431 19.3813
C 22.6338 36.6999 15.3426
C 23.3257 35.468 19.3617
C 21.8878 35.4172 22.8467
C 21.8776 35.3039 26.8209
C 22.6243 36.6173 22.8081
C 23.2934 35.3339 26.7769
H 19.9344 36.4177 15.2995
H 21.3527 36.3751 19.4317
H 19.9323 36.358 23.0035
H 21.3306 36.2478 26.9123
C 21.8991 33.0073 15.602
C 21.9075 32.9687 19.3139
C 22.6186 34.2455 15.4689
C 23.3342 32.978 19.2918
C 21.8815 32.9242 22.9339
C 21.8809 32.8468 26.662
C 22.605 34.1613 22.8556
C 23.3015 32.8527 26.5782
H 17.78 35.1616 15.1612
H 17.7394 35.1379 23.0314
C 19.7399 34.2633 15.3882
C 19.7727 34.191 19.2188
C 20.4744 35.4706 15.3841
C 21.196 34.2247 19.3809
C 19.7308 34.2083 23.0385
C 19.7444 34.062 26.8564
C 20.466 35.403 22.9788
C 21.1668 34.0952 26.8445
C 32.6385 21.9501 15.3729
C 32.6254 21.8366 19.4062
C 33.3338 23.1501 15.3976
H 33.7175 21.8367 19.4489
C 32.6582 24.3962 15.4419
C 32.6113 24.328 19.3507
C 33.346 25.6353 15.4818
H 33.7062 24.3453 19.2615
H 34.4271 23.152 15.3622
C 32.6142 21.7796 22.9556
C 32.5507 21.7313 26.9557
C 33.3198 22.9956 23.0206
H 33.6421 21.7434 27.0405
C 32.6504 24.2356 23.0137
C 32.5587 24.2168 26.8572
C 33.3548 25.4972 23.0563
H 33.6373 24.2234 27.0665
H 34.4125 22.9878 23.0727
C 32.6341 29.3527 15.4846
C 32.5978 29.2638 19.4466
C 33.3038 30.6079 15.4507
H 33.6926 29.2613 19.454
H 34.426 28.1319 15.4288
C 32.6269 29.2201 22.7931
C 32.559 29.1453 26.7768
C 33.3003 30.4567 22.7823
H 33.6481 29.1434 26.8821
H 34.4128 27.9831 22.9397
C 32.6626 26.875 15.5107
C 32.583 26.8019 19.2648
C 33.3344 28.1207 15.4959
H 34.4375 25.6356 15.4203
C 32.645 26.7505 22.9788
C 32.5504 26.6822 26.8174
C 33.3194 27.9777 22.9061
H 34.4502 25.4995 23.0584
H 22.0844 37.6452 15.3206
H 23.5113 37.6207 19.4044
H 22.0791 37.5661 22.8036
H 23.4774 37.4917 26.8687
C 24.0177 36.6991 15.3128
C 24.0593 36.6774 19.3484
H 24.5686 37.6433 15.2674
C 25.4593 36.6901 19.2317
C 26.1725 35.4697 15.3805
C 26.207 35.4865 19.1746
H 26.7171 36.4172 15.3169
C 27.6418 35.4545 19.0979
H 25.997 37.6409 19.1976
C 24.0152 36.6115 22.8075
C 24.0302 36.5489 26.8386
H 24.5673 37.5564 22.7863
C 25.4212 36.5514 26.8738
C 26.1684 35.3714 22.9888
C 26.1685 35.3364 26.8376
H 26.7175 36.3186 23.0458
C 27.5719 35.3184 26.8834
H 25.968 37.4966 26.9314
H 30.3347 35.1496 19.3108
H 30.2607 35.0424 26.8751
H 28.1874 36.3952 18.9921
H 28.1128 36.265 26.9765
C 30.4504 33.0332 15.548
C 30.4882 32.9959 19.4704
H 30.9906 33.9825 15.4768
C 31.9067 32.9585 19.4771
C 30.4465 32.8984 22.868
C 30.447 32.8886 26.7334
H 30.9892 33.8488 22.8483
C 31.8722 32.8443 26.7758
C 28.3116 34.2462 15.4488
C 28.3842 34.2373 19.2771
C 29.7758 34.2104 19.3656
C 28.3057 34.1272 22.9747
C 28.2975 34.1218 26.8095
C 29.7169 34.0975 26.7922
C 32.6046 31.7969 15.4582
C 32.5982 31.7467 19.4746
H 33.1384 32.7517 15.4151
H 33.6914 31.7382 19.4635
H 34.3972 30.6126 15.4047
H 32.4533 33.9052 19.4555
C 32.5973 31.6596 22.7448
C 32.5614 31.6325 26.8036
H 33.1384 32.6095 22.7252
H 33.6521 31.6252 26.874
H 34.3943 30.4605 22.8055
H 32.4177 33.7889 26.843
H 33.627 26.6867 27.0352
H 19.2156 18.331 26.8023
H 19.2066 34.9955 27.0726
H 14.3851 26.704 23.0494
H 28.8553 35.0744 23.029
H 33.6805 26.7992 19.1907
H 28.8647 18.3678 22.9639
H 19.232 18.4158 19.1995
H 19.2178 35.1367 19.2358
H 28.8532 35.1938 15.3699
H 14.4515 26.7815 15.2473
H 28.9126 18.5129 15.4176
Li 31.1792 31.8232 17.604
Li 16.0379 22.9626 24.8868
Li 23.3299 18.0438 17.3032
Li 24.8015 35.4821 24.9313
Li 31.8706 22.8728 24.8112
Li 16.5936 31.7261 17.2461
Li 27.1432 34.0307 17.4218
Li 21.2781 34.4866 17.3123
Li 31.8438 28.1629 24.7113
Li 15.9405 27.9511 25.0282
Li 18.7612 20.6027 24.7012
Li 29.2766 20.4422 24.8826
Li 19.1046 20.394 17.3571
Li 26.677 19.1979 17.5021
Li 21.1589 19.269 24.7966
Li 26.8256 19.0565 24.7962
Li 29.0189 33.1239 24.8807
Li 21.3663 34.2617 24.7777
Li 16.2623 28.1923 17.3299
Li 16.2761 25.3549 17.3326
Li 16.7479 31.6035 24.9051
Li 32.0981 28.264 17.3965
Li 28.9756 20.6271 17.4455
Li 32.0773 25.4596 17.3481
Li 24.596 35.5986 17.4175
Li 31.4616 31.6109 24.8345
Li 16.651 21.8887 17.307
Li 23.6436 17.8384 24.7239
Li 31.4506 21.9175 17.481
Li 18.8093 33.3895 21.2015
Li 15.9306 25.3568 20.9746
Li 18.458 33.8869 25.0921
Li 27.1773 34.6718 21.0662
Li 20.7422 18.5002 21.0863
Li 33.0691 25.6805 21.063
Li 33.0263 25.4743 25.0593
Li 29.6624 19.4655 21.1425
Li 15.7856 28.1584 20.9846
Li 23.3408 25.4942 21.2105
Li 22.6061 29.2677 21.0475
Li 18.8409 33.2872 17.2465
Li 16.0051 21.4282 21.0314
