617
592nano.out 0 0 0
C 24.0627 26.8422 16.2396
C 24.0298 26.7592 19.4765
C 24.7772 28.0765 16.2579
C 25.4538 26.7597 19.4828
C 26.203 25.6092 16.2536
C 26.1648 25.5268 19.4758
C 26.916 26.8421 16.2694
C 27.5886 25.5273 19.4673
C 24.066 29.3123 16.239
C 24.0364 29.2239 19.4894
C 24.7833 30.5471 16.221
C 25.4592 29.2257 19.4926
C 26.2034 28.0748 16.2717
C 26.1675 27.9922 19.4895
C 26.9202 29.3093 16.2602
C 27.5917 27.9911 19.4876
C 24.0195 26.7344 22.7476
C 24.02 26.6813 25.9644
C 24.7327 27.9692 22.7439
C 25.4465 26.6834 25.947
C 26.1592 25.5003 22.7133
C 26.1604 25.4471 25.9607
C 26.8726 26.7321 22.7184
C 27.5871 25.4484 25.9969
C 24.0194 29.2031 22.7452
C 24.0197 29.1548 25.9829
C 24.7332 30.4375 22.7289
C 25.4444 29.1573 25.9576
C 26.1591 27.9655 22.7347
C 26.1566 27.9212 25.94
C 26.875 29.1979 22.7387
C 27.5832 27.924 25.9575
C 30.4894 25.6095 16.2301
C 30.4334 25.5244 19.4309
C 31.2024 26.8381 16.2368
C 31.872 25.5256 19.4093
C 30.4383 25.4993 22.5807
C 30.4284 25.4507 26.2196
C 31.1575 26.7342 22.5517
C 31.869 25.4506 26.3632
C 28.3446 26.841 16.2672
C 28.2999 26.758 19.4729
C 29.0586 28.0728 16.2744
C 29.726 26.757 19.4541
C 28.3015 26.7319 22.6947
C 28.2973 26.6885 26.0062
C 29.0177 27.9644 22.6943
C 29.7203 26.6934 26.122
C 30.4958 23.1505 16.2223
C 30.4343 23.0596 19.4126
C 31.203 24.3768 16.208
C 31.8722 23.0695 19.4029
C 30.4358 23.0304 22.5771
C 30.4438 22.9839 26.2268
C 31.1497 24.2523 22.5512
C 31.8721 22.9905 26.2696
C 28.3471 24.3791 16.2479
C 28.2997 24.2945 19.4467
C 29.0596 25.6113 16.249
C 29.7251 24.2952 19.4296
C 28.2954 24.2668 22.6517
C 28.2991 24.2151 26.0615
C 29.0108 25.4999 22.6545
C 29.7257 24.2189 26.1623
C 30.4899 30.5366 16.2962
C 30.4454 30.4521 19.5047
C 31.2009 31.7973 16.2892
C 31.8821 30.4397 19.4913
C 30.4422 30.4292 22.6979
C 30.4314 30.4091 25.9985
C 31.1504 31.674 22.7287
C 31.8741 30.4029 26.0544
C 24.0774 34.2576 16.1502
C 24.0621 34.1606 19.4144
C 24.8182 35.5015 16.1546
C 25.4769 34.165 19.5449
C 26.2133 33.0087 16.055
C 26.1901 32.9234 19.5662
C 26.9437 34.2603 15.9035
C 27.6179 32.92 19.6164
C 24.0203 34.144 22.649
C 24.0289 34.0919 26.3501
C 24.7573 35.3836 22.6087
C 25.4491 34.1032 26.3141
C 26.1597 32.8918 22.6489
C 26.1671 32.8683 26.1652
C 26.8915 34.1361 22.5628
C 27.591 32.8728 26.1506
C 28.357 31.7707 16.1574
C 28.3219 31.686 19.5539
C 29.0813 33.0206 16.0835
C 29.7456 31.6809 19.5485
C 28.3041 31.658 22.7279
C 28.2919 31.6415 26.0124
C 29.0268 32.9004 22.7204
C 29.7223 31.6436 25.9779
C 30.4869 28.0646 16.2696
C 30.437 27.9881 19.4578
C 31.2022 29.3024 16.2997
C 31.8756 27.9835 19.4368
C 30.4442 27.9672 22.6218
C 30.4211 27.9341 26.1599
C 31.1601 29.2077 22.6097
C 31.8634 27.9386 26.3127
C 24.0746 31.7826 16.1848
C 24.0471 31.6875 19.4687
C 24.7959 33.0134 16.1313
C 25.4714 31.69 19.5099
C 26.2106 30.5446 16.2207
C 26.1769 30.4579 19.5082
C 26.9293 31.7768 16.1392
C 27.6005 30.4559 19.514
C 24.0211 31.6719 22.707
C 24.0208 31.6257 26.1018
C 24.7382 32.9006 22.6671
C 25.4473 31.6322 26.0632
C 26.1594 30.4309 22.7304
C 26.1571 30.398 25.9815
C 26.8758 31.6637 22.7092
C 27.5817 30.4026 25.9649
C 28.3449 29.3058 16.2688
C 28.3057 29.2223 19.496
C 29.057 30.5429 16.2462
C 29.732 29.2197 19.4857
C 28.2997 29.1959 22.7257
C 28.293 29.1627 25.9636
C 29.0136 30.431 22.7266
C 29.7166 29.1606 26.0388
H 14.4254 21.8937 15.7657
H 14.9481 20.8919 19.4806
H 14.396 21.7938 22.6878
H 14.9436 20.8089 26.5704
H 22.146 16.0352 15.754
C 22.6995 16.9794 15.7626
H 23.5472 15.9432 19.5883
H 22.0995 15.9101 22.6774
C 22.647 16.8576 22.6958
H 23.5062 15.859 26.1473
H 15.6636 19.7315 15.7075
C 16.2154 20.6751 15.7247
H 17.0793 19.6561 19.562
H 17.8411 18.4653 15.6518
C 18.3827 19.4148 15.6703
H 15.6209 19.6424 22.6853
C 16.1682 20.5897 22.6772
H 17.0841 19.579 26.655
H 17.7657 18.3835 22.6776
C 18.3171 19.3278 22.6862
H 20.0117 17.2507 15.5899
C 20.5465 18.2055 15.6082
H 21.3933 17.1703 19.6226
H 19.9393 17.1342 22.6529
C 20.4798 18.0848 22.6758
H 21.363 17.0968 26.4957
H 24.6063 16.0366 16.0224
H 24.5753 15.9319 22.7402
H 13.6759 25.5117 19.5543
C 14.7692 25.5156 19.5393
H 13.6697 25.4243 26.5399
C 14.7635 25.4345 26.518
H 13.6964 23.029 19.519
H 14.4226 24.391 15.6606
C 14.7904 23.0271 19.5081
H 13.6909 22.9461 26.579
H 14.3907 24.255 22.5842
C 14.7854 22.946 26.5653
H 13.6962 30.4955 19.6131
H 14.4581 31.8073 15.7123
C 14.7909 30.4956 19.6124
H 13.6647 30.3967 26.1373
H 14.3938 31.6654 22.8388
C 14.7578 30.3938 26.1738
H 13.6754 28.0149 19.597
H 14.4498 29.3385 15.6423
C 14.7693 28.0075 19.5807
H 13.654 27.9072 26.3587
H 14.3938 29.2051 22.8256
C 14.7483 27.9075 26.346
C 15.5189 21.8931 15.7614
C 15.4857 21.8441 19.4849
C 16.1955 23.145 15.773
C 16.91 21.8087 19.4953
C 17.6422 20.6247 15.7147
C 17.6306 20.6009 19.529
C 18.3604 21.8955 15.7879
C 19.0399 20.567 19.613
C 15.5165 24.3882 15.7033
C 15.463 24.2827 19.5481
C 16.2064 25.6178 15.6636
C 16.9031 24.2759 19.5203
C 17.6466 23.1322 15.8177
C 17.6177 23.0495 19.4986
C 18.3619 24.378 15.865
C 19.0469 23.0501 19.4949
C 15.4901 21.782 22.6805
C 15.4808 21.7625 26.5605
C 16.172 23.0345 22.6636
C 16.9056 21.7339 26.5429
C 17.5939 20.5433 22.6491
C 17.6314 20.5258 26.5967
C 18.3095 21.7941 22.6662
C 19.0399 20.5006 26.6068
C 15.4849 24.2579 22.6244
C 15.4591 24.205 26.5453
C 16.1621 25.5052 22.5959
C 16.8975 24.2016 26.4661
C 17.6043 23.0251 22.6775
C 17.6116 22.976 26.466
C 18.3175 24.2652 22.7013
C 19.0414 22.9765 26.3863
C 21.9441 20.6722 15.7872
C 21.9082 20.5837 19.5498
C 22.6498 21.9082 15.9535
C 23.3318 20.5878 19.5332
C 21.8892 20.5583 22.7279
C 21.9087 20.5092 26.3798
C 22.5974 21.7974 22.7582
C 23.3242 20.5049 26.2294
C 19.8004 21.8963 15.8263
C 19.7609 21.8217 19.5384
C 20.5026 23.1347 15.9536
C 21.1875 21.8195 19.5131
C 19.7457 21.7935 22.7137
C 19.7565 21.752 26.4502
C 20.4578 23.0296 22.7504
C 21.185 21.7397 26.33
C 21.9513 18.1942 15.6581
C 21.9325 18.1212 19.6025
C 22.6754 19.4379 15.7006
C 23.3412 18.1049 19.5922
C 21.8912 18.0714 22.6645
C 21.9089 18.0444 26.4483
C 22.6146 19.3173 22.7038
C 23.3158 18.0166 26.2633
C 19.8039 19.3981 15.634
C 19.7741 19.3553 19.5676
C 20.5232 20.6602 15.7355
C 21.1846 19.3286 19.5848
C 19.7333 19.2939 22.6821
C 19.7738 19.2865 26.5393
C 20.46 20.5535 22.7171
C 21.1877 19.2524 26.5488
C 21.9225 25.608 16.143
C 21.8943 25.5237 19.4609
C 22.6349 26.843 16.1974
C 23.3178 25.5254 19.4678
C 21.8821 25.501 22.7623
C 21.8824 25.4441 26.0556
C 22.5936 26.7353 22.7599
C 23.3083 25.4441 25.9989
C 15.5438 29.3331 15.6925
C 15.4638 29.2379 19.6277
C 16.2331 30.5644 15.7344
C 16.9043 29.2392 19.5955
C 17.6641 28.0961 15.8064
C 17.6179 27.9949 19.537
C 18.373 29.3249 15.8749
C 19.0456 27.9903 19.4946
C 15.4883 29.2026 22.8255
C 15.4305 29.1307 26.2256
C 16.17 30.4236 22.8242
C 16.8825 29.1464 26.2106
C 17.607 27.9739 22.7739
C 17.6015 27.9088 26.2325
C 18.3158 29.2017 22.7903
C 19.0267 27.9127 26.1597
C 19.7861 26.8472 16.0254
C 19.7553 26.7564 19.4658
C 20.4997 28.0835 16.0824
C 21.1822 26.7574 19.4628
C 19.7441 26.7359 22.765
C 19.742 26.6787 26.1416
C 20.456 27.9726 22.772
C 21.1695 26.6797 26.064
C 21.9298 23.1375 16.0222
C 21.8975 23.0536 19.4766
C 22.6379 24.3729 16.1279
C 23.3223 23.0567 19.4725
C 21.8819 23.0296 22.7652
C 21.8894 22.9727 26.1721
C 22.5947 24.2666 22.7629
C 23.3145 22.9724 26.0846
C 15.5313 26.8583 15.7309
C 15.4449 26.7608 19.5659
C 16.2216 28.1018 15.6644
C 16.9006 26.7593 19.5274
C 17.6561 25.6121 15.8033
C 17.618 25.5207 19.5035
C 18.3638 26.8503 15.8863
C 19.0449 25.5219 19.4674
C 15.483 26.7358 22.7037
C 15.4339 26.6817 26.43
C 16.1645 27.9712 22.7761
C 16.8891 26.6808 26.3477
C 17.6107 25.4988 22.6807
C 17.6071 25.4479 26.359
C 18.3188 26.7369 22.7438
C 19.0345 25.4454 26.2356
C 19.787 24.3716 15.9737
C 19.7595 24.2868 19.4687
C 20.4974 25.608 16.0598
C 21.182 24.2878 19.4633
C 19.7445 24.2665 22.742
C 19.7494 24.2119 26.247
C 20.455 25.5002 22.7592
C 21.1714 24.2085 26.1473
C 24.0635 16.98 15.9131
C 24.0969 16.8881 19.5585
C 24.8142 18.1961 15.9645
C 25.463 16.8986 19.5017
H 26.0209 15.9566 19.4877
H 26.7403 17.2568 16.1964
C 24.0917 19.4362 15.8808
C 24.0627 19.3502 19.5502
C 24.794 20.6725 16.0234
C 25.4793 19.3572 19.4884
C 26.2052 18.2073 16.1146
C 26.207 18.121 19.472
C 26.9398 19.4086 16.1768
C 27.6026 18.1439 19.4289
C 24.0159 16.8719 22.7322
C 24.057 16.8037 26.1593
C 24.7599 18.0918 22.7365
C 25.4521 16.7989 26.0942
H 25.9921 15.85 26.036
H 26.7043 17.1676 22.6798
C 24.0323 19.3263 22.7355
C 24.0517 19.2626 26.1977
C 24.7398 20.5636 22.7352
C 25.476 19.2626 26.138
C 26.1559 18.1142 22.7033
C 26.2127 18.0108 26.1359
C 26.8791 19.3189 22.6503
C 27.6138 18.0351 26.2389
H 28.1523 17.1962 19.425
H 28.1623 17.0887 26.2598
C 30.5009 20.7014 16.2435
C 30.4452 20.5843 19.3989
C 31.2083 21.9046 16.2184
C 31.8798 20.6247 19.4057
C 30.4276 20.5877 22.4933
C 30.4602 20.5078 26.356
C 31.1447 21.7875 22.5632
C 31.8873 20.55 26.3147
C 24.0634 24.3738 16.1804
C 24.0318 24.2921 19.4679
C 24.7763 25.6086 16.2338
C 25.454 24.2936 19.4677
C 26.2078 23.144 16.2093
C 26.1688 23.0609 19.4569
C 26.9203 24.3769 16.2435
C 27.5917 23.0629 19.4413
C 24.0188 24.2672 22.7477
C 24.0238 24.2093 26.0063
C 24.7329 25.5006 22.7365
C 25.4496 24.2108 25.9825
C 26.1576 23.0334 22.6985
C 26.1667 22.9747 26.0211
C 26.8725 24.2655 22.6889
C 27.5906 22.9791 26.0675
C 28.3624 21.9146 16.2527
C 28.3076 21.829 19.422
C 29.0692 23.1483 16.2401
C 29.7313 21.8337 19.4081
C 28.2927 21.8067 22.5742
C 28.3069 21.744 26.1818
C 29.0074 23.0314 22.6028
C 29.7415 21.753 26.2597
H 30.2895 18.44 19.3985
H 31.0533 19.7571 16.2726
H 30.2951 18.3502 26.459
H 30.9741 19.6426 22.4338
C 24.0741 21.9091 16.0433
C 24.0407 21.8278 19.4859
C 24.7801 23.1406 16.1548
C 25.462 21.828 19.4658
C 26.2091 20.6665 16.1536
C 26.1825 20.593 19.4576
C 26.9256 21.9097 16.2196
C 27.6016 20.5962 19.4249
C 24.0229 21.8 22.7473
C 24.0313 21.7379 26.1072
C 24.7323 23.0317 22.7376
C 25.4594 21.7372 26.0649
C 26.1565 20.5656 22.6866
C 26.1811 20.5071 26.1222
C 26.8688 21.7998 22.6569
C 27.6014 20.5057 26.2008
C 28.3586 19.4427 16.2085
C 28.3252 19.3519 19.4117
C 29.0912 20.6598 16.2576
C 29.7378 19.3866 19.3966
C 28.2856 19.3486 22.5379
C 28.3279 19.2462 26.301
C 29.0096 20.5546 22.4579
C 29.7424 19.292 26.3888
H 32.4212 19.6729 19.4159
H 33.1763 20.9876 16.2158
H 32.4332 19.6011 26.3132
H 33.1048 20.8654 22.6201
H 14.9563 32.6312 19.5964
H 14.9137 32.5481 26.1716
C 15.5524 31.8137 15.7126
C 15.4905 31.6762 19.6054
C 16.2358 33.0058 15.6876
C 16.9158 31.7025 19.6054
C 17.662 30.565 15.7989
C 17.6221 30.4631 19.5876
C 18.3725 31.7926 15.7825
C 19.0514 30.4596 19.5421
H 15.694 33.9567 15.6703
H 17.0981 33.8543 19.6355
C 17.6614 33.0444 15.6906
C 17.6462 32.9075 19.5993
C 18.3878 34.2597 15.7148
C 19.0525 32.9358 19.565
C 15.4873 31.6773 22.8117
C 15.4575 31.5997 26.1969
C 16.1621 32.8687 22.7492
C 16.8839 31.6401 26.2729
C 17.6017 30.4354 22.7957
C 17.5951 30.3797 26.2298
C 18.3037 31.6677 22.7471
C 19.033 30.3841 26.2371
H 15.618 33.8183 22.7253
H 17.0639 33.7909 26.4492
C 17.588 32.9131 22.7106
C 17.6111 32.8433 26.4202
C 18.3033 34.1348 22.7148
C 19.0223 32.8628 26.523
C 21.9322 30.5536 16.1374
C 21.9034 30.4552 19.469
C 22.6468 31.7878 16.1447
C 23.3289 30.4581 19.477
C 21.8798 30.442 22.7408
C 21.8808 30.3884 26.1116
C 22.5909 31.68 22.7239
C 23.3078 30.3922 26.0501
C 19.8071 31.795 15.9021
C 19.7684 31.684 19.5039
C 20.5216 33.032 15.9218
C 21.1973 31.687 19.4219
C 19.7415 31.68 22.7335
C 19.7447 31.6101 26.3386
C 20.4506 32.9195 22.7447
C 21.17 31.6211 26.2462
C 21.9252 28.0798 16.1733
C 21.8958 27.9897 19.4777
C 22.6413 29.3142 16.1969
C 23.32 27.9924 19.4794
C 21.8818 27.9723 22.7638
C 21.8808 27.9157 26.0296
C 22.5936 29.2055 22.7523
C 23.3065 27.9178 25.9828
C 19.7956 29.3219 16.0075
C 19.7626 29.2221 19.5084
C 20.511 30.5559 16.0324
C 21.1844 29.2228 19.4903
C 19.745 29.2047 22.7711
C 19.7422 29.1495 26.143
C 20.4573 30.4403 22.7515
C 21.1677 29.1519 26.0865
C 21.92 35.5141 16.0871
C 21.9451 35.3608 19.2401
C 22.6782 36.7247 16.1891
C 23.3497 35.3934 19.3583
C 21.8719 35.4124 22.7652
C 21.8916 35.3037 26.4975
C 22.6268 36.615 22.6242
C 23.3023 35.3245 26.5203
H 19.9823 36.4489 15.8935
H 21.3908 36.3104 19.2551
H 19.9085 36.35 22.8461
H 21.3489 36.2503 26.5856
C 21.9367 33.0236 16.0682
C 21.9243 32.9128 19.3227
C 22.6541 34.2628 16.1197
C 23.3408 32.9224 19.3901
C 21.8791 32.9127 22.7425
C 21.889 32.8544 26.3078
C 22.5978 34.1565 22.712
C 23.3038 32.8563 26.2401
H 17.8378 35.2051 15.6907
H 17.7381 35.0718 22.6826
C 19.8015 34.2953 15.8214
C 19.7869 34.139 19.331
C 20.5243 35.4984 15.9206
C 21.2093 34.1559 19.2019
C 19.7171 34.1835 22.7858
C 19.7565 34.0678 26.5207
C 20.4505 35.3988 22.8929
C 21.165 34.0995 26.4454
C 32.6391 21.9408 16.1983
C 32.5574 21.808 19.4065
C 33.3225 23.1252 16.1753
H 33.6509 21.8232 19.4162
C 32.6393 24.3831 16.1839
C 32.5493 24.2812 19.3972
C 33.3241 25.5996 16.1824
H 33.6436 24.2818 19.3884
H 34.4175 23.1337 16.1683
C 32.5717 21.8197 22.5976
C 32.5618 21.7436 26.2595
C 33.2656 22.9997 22.5763
H 33.6542 21.7572 26.2053
C 32.5907 24.2559 22.5124
C 32.5529 24.223 26.3247
C 33.286 25.4848 22.4799
H 33.6474 24.2219 26.363
H 34.3598 23.004 22.5807
C 32.6535 29.2866 16.2954
C 32.5559 29.2229 19.4585
C 33.3316 30.5551 16.3179
H 33.6499 29.2197 19.4645
H 34.4293 28.0644 16.2383
C 32.5962 29.2096 22.4918
C 32.5494 29.1715 26.2635
C 33.2742 30.4623 22.6114
H 33.6464 29.1749 26.2984
H 34.3869 27.9813 22.3481
C 32.6476 26.8342 16.2159
C 32.5516 26.7518 19.4121
C 33.3344 28.0653 16.2372
H 34.4195 25.5959 16.175
C 32.6105 26.732 22.4531
C 32.554 26.7011 26.2912
C 33.2928 27.977 22.4009
H 34.3802 25.4711 22.4475
H 22.137 37.6749 16.2141
H 23.5316 37.5496 19.4051
H 22.092 37.5674 22.553
H 23.4937 37.4911 26.5102
C 24.0722 36.7166 16.2325
C 24.0868 36.6074 19.4416
H 24.6236 37.6584 16.3014
C 25.4551 36.6198 19.5667
C 26.2255 35.4721 16.0308
C 26.2029 35.4077 19.6398
H 26.7777 36.4173 16.0507
C 27.6137 35.3858 19.7426
H 25.9981 37.5695 19.6094
C 24.0171 36.5986 22.5663
C 24.0473 36.5469 26.4977
H 24.5749 37.5351 22.4803
C 25.4258 36.553 26.4644
C 26.166 35.3522 22.5925
C 26.1751 35.3415 26.4505
H 26.716 36.2933 22.4967
C 27.5926 35.3248 26.4721
H 25.9723 37.5012 26.4451
H 30.3161 35.0717 19.7309
H 30.2794 35.0513 26.1971
H 28.1579 36.3311 19.8305
H 28.1365 36.272 26.5392
C 30.482 32.9988 16.1824
C 30.46 32.9272 19.5951
H 31.0314 33.9456 16.19
C 31.8924 32.8845 19.5635
C 30.4311 32.8727 22.748
C 30.4383 32.9069 26.0075
H 30.9763 33.8219 22.7401
C 31.8664 32.8617 25.9482
C 28.356 34.2232 15.9311
C 28.3477 34.1703 19.7132
C 29.7594 34.1291 19.6813
C 28.2975 34.106 22.6473
C 28.3277 34.1228 26.3015
C 29.7278 34.1062 26.1756
C 32.6351 31.754 16.3297
C 32.5678 31.6983 19.5216
H 33.1769 32.7035 16.3537
H 33.6614 31.6838 19.5172
H 34.4255 30.5544 16.3319
H 32.4346 33.8357 19.5882
C 32.5779 31.6394 22.7247
C 32.5557 31.6495 25.9593
H 33.1107 32.5921 22.8029
H 33.6486 31.6412 25.9278
H 34.3701 30.464 22.6166
H 32.4155 33.808 25.9269
H 33.6433 26.7023 26.4129
H 19.2255 18.3409 26.6077
H 19.2126 35.0149 26.5975
H 14.3884 26.7384 22.6724
H 28.8481 35.0486 22.5669
H 33.6454 26.7507 19.4029
H 28.8317 18.404 22.4618
H 19.228 18.409 19.6187
H 19.2376 35.0922 19.3405
H 28.9067 35.1685 15.8808
H 14.438 26.8647 15.6623
H 28.9063 18.4971 16.2316
Li 16.8993 21.9435 14.0141
Li 16.0716 25.3997 17.701
Li 31.1711 31.6654 27.7368
Li 19.036 20.4304 17.566
Li 31.9217 30.5503 14.5492
Li 22.6255 19.1947 17.7573
Li 16.1106 30.3749 27.9712
Li 18.9773 33.0162 24.5299
Li 24.8478 17.9727 27.9113
Li 16.0058 25.3496 24.6276
Li 27.7509 20.6576 14.4605
Li 18.8046 20.567 24.5398
Li 23.4235 35.5611 14.412
Li 18.8489 33.119 17.562
Li 16.0747 28.2217 17.7228
Li 21.2801 19.1259 24.5233
Li 29.1843 20.3917 24.4796
Li 31.9869 25.4059 24.3321
Li 23.3151 35.4527 24.4738
Li 27.1058 34.6416 24.5214
Li 27.1324 34.3382 17.8873
Li 20.7265 35.0488 20.9394
Li 32.6754 28.1678 24.3965
Li 27.5128 18.7828 21.0314
Li 15.7405 21.6928 24.6028
