598
592nano.out 0 0 0
C 24.0707 26.8279 16.2383
C 24.0423 26.7839 19.4786
C 24.7862 28.0608 16.2436
C 25.4642 26.7838 19.4854
C 26.2064 25.5996 16.2413
C 26.1754 25.5531 19.4847
C 26.921 26.8309 16.2411
C 27.5975 25.5534 19.4902
C 24.0754 29.2947 16.2466
C 24.0425 29.2466 19.4883
C 24.789 30.5271 16.2496
C 25.4638 29.2462 19.492
C 26.2102 28.0634 16.2451
C 26.1743 28.0147 19.4916
C 26.9245 29.2984 16.2401
C 27.5961 28.0142 19.4931
C 24.0267 26.7254 22.7326
C 24.0199 26.6781 25.9859
C 24.7373 27.9563 22.7368
C 25.4419 26.6773 25.9923
C 26.1584 25.4948 22.7356
C 26.1534 25.4447 25.9893
C 26.8696 26.7254 22.7404
C 27.5762 25.4432 25.9953
C 24.0266 29.1869 22.7371
C 24.0192 29.1414 25.9942
C 24.7376 30.4183 22.7424
C 25.4409 29.1407 26.0055
C 26.1588 27.9562 22.7416
C 26.1522 27.9086 26.0031
C 26.8694 29.1877 22.7473
C 27.5764 27.906 26.011
C 30.4853 25.5976 16.2253
C 30.4404 25.5518 19.4906
C 31.1999 26.8258 16.208
C 31.8775 25.5536 19.4939
C 30.4273 25.4941 22.7361
C 30.4235 25.4353 25.9957
C 31.1373 26.7241 22.7375
C 31.8623 25.4337 25.9823
C 28.3472 26.832 16.2328
C 28.3062 26.7836 19.4924
C 29.0607 28.0641 16.2159
C 29.7321 26.7833 19.4909
C 28.2914 26.7252 22.7423
C 28.2879 26.6747 26.0051
C 29.0022 27.9565 22.7457
C 29.715 26.671 26.0058
C 30.4817 23.138 16.2405
C 30.4421 23.0866 19.4902
C 31.1921 24.3593 16.2338
C 31.88 23.0958 19.4936
C 30.4258 23.0355 22.7283
C 30.418 22.9693 25.9791
C 31.1352 24.2603 22.7296
C 31.8555 22.9751 25.9654
C 28.3426 24.369 16.2362
C 28.3091 24.3208 19.49
C 29.0577 25.5997 16.2316
C 29.7336 24.321 19.4901
C 28.2913 24.2649 22.7358
C 28.2858 24.2093 25.9893
C 29.0019 25.4937 22.7386
C 29.7127 24.2067 25.9898
C 30.4889 30.5326 16.2137
C 30.436 30.481 19.5014
C 31.1997 31.7987 16.2697
C 31.874 30.4717 19.512
C 30.4272 30.4143 22.7423
C 30.418 30.3718 25.9548
C 31.1379 31.6643 22.7344
C 31.8678 30.3549 25.9202
C 24.07 34.2263 16.258
C 24.0475 34.1714 19.5131
C 24.7951 35.4679 16.2746
C 25.4622 34.1717 19.5199
C 26.2086 32.9981 16.2545
C 26.176 32.9417 19.5112
C 26.927 34.2442 16.2693
C 27.5958 32.9406 19.516
C 24.0196 34.1122 22.7429
C 24.0182 34.0733 26.0003
C 24.7453 35.3534 22.7442
C 25.4326 34.0756 26.0174
C 26.1566 32.8812 22.7516
C 26.1493 32.8435 26.0233
C 26.876 34.1255 22.7522
C 27.5696 32.8447 26.0235
C 28.3489 31.7702 16.2282
C 28.3066 31.711 19.506
C 29.0651 33.0253 16.2483
C 29.7289 31.7077 19.5077
C 28.2918 31.6494 22.7526
C 28.2772 31.6114 26.0095
C 29.0082 32.8959 22.7494
C 29.7047 31.6074 25.9652
C 30.4872 28.0566 16.1988
C 30.4389 28.0154 19.492
C 31.2018 29.296 16.2073
C 31.8761 28.0131 19.4974
C 30.4278 27.9548 22.7425
C 30.4248 27.9021 25.9989
C 31.1364 29.1882 22.7401
C 31.8684 27.8943 25.9805
C 24.0751 31.7598 16.2518
C 24.0441 31.7088 19.496
C 24.7883 32.996 16.2535
C 25.4631 31.7081 19.5
C 26.2137 30.5297 16.246
C 26.174 30.4773 19.4972
C 26.9261 31.7676 16.2426
C 27.5956 30.4763 19.4984
C 24.0246 31.6491 22.7418
C 24.0178 31.6067 26.0018
C 24.7366 32.8828 22.7463
C 25.4391 31.607 26.0156
C 26.1582 30.4177 22.7478
C 26.1507 30.3743 26.0155
C 26.8705 31.6525 22.7526
C 27.5726 30.3729 26.0162
C 28.3492 29.299 16.2211
C 28.3051 29.247 19.4946
C 29.0576 30.5371 16.2078
C 29.73 29.2461 19.4938
C 28.292 29.1858 22.7489
C 28.2856 29.139 26.0113
C 29.0038 30.4203 22.7497
C 29.7109 29.1313 25.9978
H 14.4421 21.8912 16.3753
H 14.965 20.9399 19.538
H 14.4188 21.7825 22.7135
H 14.9254 20.8277 25.9073
H 22.1454 16.0121 16.2584
C 22.6937 16.9598 16.2333
H 23.536 15.9911 19.4804
H 22.0756 15.9287 22.6654
C 22.6306 16.8721 22.6841
H 23.4891 15.8772 25.9001
H 15.664 19.7362 16.3053
C 16.2173 20.6725 16.188
H 17.1044 19.7036 19.7505
H 17.8287 18.4557 15.7946
C 18.3751 19.4025 15.86
H 15.6522 19.6383 22.676
C 16.1932 20.5894 22.7124
H 17.0641 19.5946 25.9023
H 17.7935 18.405 22.6911
C 18.3419 19.3532 22.727
H 20.0104 17.2277 16.0391
C 20.5464 18.184 16.0335
H 21.4028 17.2213 19.5497
H 19.9404 17.1655 22.6834
C 20.4872 18.1148 22.7125
H 21.3554 17.1155 25.8988
H 24.6173 16.027 16.3111
H 24.5511 15.9327 22.6774
H 13.7142 25.5566 19.7967
C 14.8079 25.559 19.7586
H 13.6939 25.4394 25.972
C 14.7894 25.4397 25.9874
H 13.7205 23.0726 19.6736
H 14.4201 24.383 15.9732
C 14.8145 23.0697 19.6405
H 13.6889 22.9698 25.9392
H 14.4225 24.2469 22.7861
C 14.7832 22.9602 25.9597
H 13.7174 30.5085 19.5532
H 14.4611 31.7924 16.3074
C 14.8124 30.5162 19.5418
H 13.6896 30.3878 25.9476
H 14.4167 31.6671 22.7222
C 14.7838 30.3976 25.9686
H 13.7176 28.0498 19.7212
H 14.4575 29.3339 16.1527
C 14.8118 28.0455 19.6754
H 13.6943 27.9183 25.974
H 14.4213 29.2021 22.7615
C 14.7898 27.9182 25.9893
C 15.5256 21.8883 16.2303
C 15.5054 21.8898 19.5803
C 16.1947 23.145 16.1014
C 16.9359 21.8496 19.6105
C 17.6393 20.6166 16.0232
C 17.6551 20.6498 19.6874
C 18.3575 21.8842 16.0717
C 19.0747 20.6229 19.7651
C 15.5153 24.3782 15.9804
C 15.4935 24.3287 19.7066
C 16.2083 25.6179 15.8895
C 16.9345 24.3197 19.6425
C 17.6467 23.1233 16.0929
C 17.6461 23.0917 19.6102
C 18.3645 24.3669 16.0954
C 19.072 23.0909 19.5935
C 15.5126 21.7713 22.7307
C 15.465 21.7787 25.9437
C 16.1953 23.0352 22.7643
C 16.9028 21.7367 25.9594
C 17.6286 20.5501 22.7393
C 17.6127 20.5415 25.9388
C 18.3392 21.7996 22.7605
C 19.0316 20.5051 25.9539
C 15.5173 24.2482 22.7845
C 15.4686 24.2233 25.9827
C 16.1946 25.4943 22.7922
C 16.9074 24.2133 25.9898
C 17.6329 23.0264 22.765
C 17.6151 22.9868 25.9791
C 18.3395 24.2618 22.766
C 19.0389 22.9813 25.9821
C 21.9358 20.6511 16.1504
C 21.9281 20.6241 19.5678
C 22.6456 21.8927 16.201
C 23.3436 20.624 19.499
C 21.8919 20.567 22.7409
C 21.884 20.5186 25.9703
C 22.6052 21.801 22.7359
C 23.3048 20.5164 25.9762
C 19.7955 21.882 16.0874
C 19.7898 21.8664 19.6432
C 20.5011 23.118 16.168
C 21.2105 21.8563 19.5808
C 19.7615 21.7966 22.7612
C 19.7498 21.7515 25.9732
C 20.4731 23.0319 22.7511
C 21.1714 21.7483 25.9774
C 21.9415 18.1786 16.1523
C 21.9471 18.1714 19.5487
C 22.6599 19.4208 16.1745
C 23.3389 18.1553 19.4884
C 21.8794 18.0963 22.7083
C 21.9022 18.0632 25.9341
C 22.606 19.337 22.725
C 23.2921 18.0443 25.9509
C 19.8028 19.3825 15.9311
C 19.81 19.4107 19.7617
C 20.5139 20.642 16.0584
C 21.2157 19.3781 19.6235
C 19.7543 19.3233 22.7423
C 19.757 19.301 25.9348
C 20.4719 20.5669 22.7558
C 21.1626 19.2742 25.9512
C 21.9301 25.594 16.224
C 21.9115 25.5541 19.4762
C 22.6444 26.8252 16.2295
C 23.3326 25.5533 19.4713
C 21.8951 25.4943 22.734
C 21.8867 25.4466 25.9852
C 22.6055 26.7252 22.7324
C 23.3087 25.4463 25.9843
C 15.5531 29.3279 16.1481
C 15.4965 29.2552 19.5856
C 16.239 30.5413 16.2144
C 16.9341 29.2622 19.5472
C 17.6644 28.0824 16.1167
C 17.6445 28.0294 19.5618
C 18.3778 29.3062 16.1858
C 19.0679 28.0218 19.5126
C 15.516 29.2013 22.765
C 15.4691 29.1344 25.9874
C 16.194 30.4138 22.7479
C 16.9075 29.1438 25.9943
C 17.6313 27.9571 22.768
C 17.6163 27.9099 25.997
C 18.3391 29.1878 22.7529
C 19.0428 27.9108 25.9945
C 19.7957 26.8294 16.1809
C 19.7779 26.788 19.5036
C 20.5115 28.0626 16.209
C 21.2004 26.7857 19.4793
C 19.764 26.725 22.7491
C 19.7533 26.6786 25.9912
C 20.4733 27.9556 22.7415
C 21.1757 26.6786 25.9878
C 21.929 23.1238 16.2073
C 21.9163 23.09 19.5138
C 22.6416 24.359 16.2298
C 23.3374 23.0897 19.4802
C 21.8943 23.032 22.7388
C 21.8855 22.9837 25.9822
C 22.6051 24.2634 22.7321
C 23.3069 22.983 25.9833
C 15.5388 26.8589 15.9493
C 15.4893 26.8052 19.7249
C 16.2285 28.0902 16.0655
C 16.9344 26.8003 19.6454
C 17.6574 25.6068 16.0296
C 17.6466 25.561 19.6192
C 18.3681 26.8374 16.1083
C 19.0707 25.5571 19.5369
C 15.5162 26.7248 22.7973
C 15.4703 26.6788 25.9949
C 16.1941 27.9555 22.7806
C 16.9068 26.6787 25.999
C 17.6315 25.4925 22.776
C 17.6163 25.4473 25.9951
C 18.3387 26.7249 22.7656
C 19.0424 25.4462 25.9925
C 19.7874 24.3586 16.1676
C 19.7814 24.3243 19.5366
C 20.5029 25.5934 16.1963
C 21.2022 24.3207 19.5014
C 19.7639 24.2615 22.7527
C 19.7518 24.216 25.987
C 20.4734 25.4943 22.7437
C 21.1753 24.2145 25.9857
C 24.0605 16.9678 16.269
C 24.0913 16.9332 19.4725
C 24.8069 18.1918 16.2484
C 25.4564 16.9325 19.4818
H 26.0109 15.9886 19.5008
H 26.7474 17.268 16.2989
C 24.0765 19.4294 16.2256
C 24.0615 19.3939 19.4829
C 24.7877 20.6627 16.233
C 25.4774 19.3947 19.4755
C 26.1999 18.2144 16.2645
C 26.2043 18.1556 19.4822
C 26.932 19.4236 16.2502
C 27.599 18.1769 19.4914
C 23.9942 16.8739 22.6891
C 24.0451 16.8189 25.9337
C 24.7473 18.0979 22.7079
C 25.4093 16.8171 25.9462
H 25.9633 15.8731 25.9262
H 26.6822 17.1678 22.7022
C 24.0208 19.3388 22.7187
C 24.0199 19.2856 25.9698
C 24.737 20.5685 22.7256
C 25.4358 19.2842 25.9765
C 26.1363 18.1165 22.7108
C 26.1619 18.0418 25.967
C 26.8764 19.3268 22.7212
C 27.5542 18.0601 25.9696
H 28.1483 17.2293 19.4994
H 28.1009 17.1109 25.9553
C 30.4802 20.6927 16.2671
C 30.4508 20.6117 19.4922
C 31.1919 21.8861 16.2547
C 31.8866 20.6503 19.497
C 30.4253 20.5922 22.7195
C 30.4168 20.4925 25.9711
C 31.1366 21.7856 22.7214
C 31.853 20.528 25.9544
C 24.0659 24.3623 16.2387
C 24.0452 24.3217 19.4701
C 24.7809 25.5961 16.2393
C 25.4658 24.3217 19.4756
C 26.2051 23.1348 16.239
C 26.179 23.0909 19.4785
C 26.9182 24.366 16.2379
C 27.6012 23.0915 19.4867
C 24.0264 24.264 22.7298
C 24.0191 24.2146 25.9833
C 24.7372 25.4946 22.7321
C 25.4419 24.2136 25.9848
C 26.1576 23.0337 22.7318
C 26.152 22.9813 25.9835
C 26.8689 24.2635 22.7349
C 27.5741 22.9801 25.9851
C 28.3427 21.9054 16.2392
C 28.3149 21.8576 19.4887
C 29.0552 23.1335 16.2362
C 29.7374 21.8611 19.4901
C 28.2907 21.8024 22.7304
C 28.285 21.743 25.9824
C 29.0028 23.0307 22.7322
C 29.7078 21.7435 25.9796
H 30.2902 18.4675 19.4978
H 31.0278 19.7449 16.2993
H 30.2472 18.3465 25.9585
H 30.9726 19.6444 22.7125
C 24.0699 21.8972 16.2311
C 24.052 21.8598 19.4791
C 24.7804 23.1301 16.2393
C 25.4713 21.8601 19.4737
C 26.2078 20.668 16.2393
C 26.1872 20.6258 19.4781
C 26.9196 21.9002 16.2372
C 27.6063 20.6274 19.4861
C 24.0245 21.8018 22.7291
C 24.0189 21.7506 25.9815
C 24.7372 23.0329 22.7298
C 25.439 21.7498 25.9834
C 26.1567 20.5707 22.7264
C 26.1511 20.5145 25.9816
C 26.8701 21.7991 22.7307
C 27.5723 20.514 25.9824
C 28.3394 19.4533 16.2641
C 28.3265 19.3845 19.4913
C 29.0611 20.6566 16.2515
C 29.7408 19.4158 19.4935
C 28.281 19.3538 22.7199
C 28.2885 19.269 25.9767
C 29.0073 20.5568 22.7246
C 29.7012 19.2963 25.9716
H 32.4245 19.697 19.5052
H 33.162 20.9676 16.3031
H 32.3904 19.5743 25.9352
H 33.1092 20.872 22.7056
H 14.9611 32.6477 19.4804
H 14.9269 32.5312 25.926
C 15.5553 31.8033 16.2711
C 15.4984 31.6952 19.5038
C 16.2401 32.9846 16.2838
C 16.9335 31.7339 19.5022
C 17.6736 30.5452 16.2153
C 17.6439 30.4848 19.5103
C 18.3849 31.7706 16.2404
C 19.0669 30.4855 19.4979
H 15.7002 33.9357 16.3255
H 17.0991 33.8743 19.5049
C 17.6746 33.0196 16.2595
C 17.6463 32.9268 19.5024
C 18.3901 34.2162 16.2608
C 19.0625 32.9591 19.5028
C 15.5106 31.6782 22.7311
C 15.4653 31.5793 25.9582
C 16.1912 32.8598 22.7248
C 16.903 31.6203 25.9734
C 17.632 30.4226 22.7469
C 17.6154 30.3705 25.9876
C 18.3384 31.6489 22.7379
C 19.0393 30.3761 25.9899
H 15.6513 33.8121 22.7123
H 17.0641 33.7628 25.9272
C 17.6272 32.8983 22.7305
C 17.6128 32.816 25.9589
C 18.3398 34.0948 22.7278
C 19.0311 32.8519 25.9722
C 21.9406 30.5272 16.2439
C 21.9112 30.4791 19.4887
C 22.6542 31.7594 16.2503
C 23.3318 30.4782 19.49
C 21.8943 30.4182 22.7357
C 21.8858 30.3739 25.9885
C 22.6049 31.6492 22.7373
C 23.3069 30.3743 25.9942
C 19.8062 31.7688 16.2424
C 19.7787 31.7129 19.4958
C 20.5185 32.9968 16.2489
C 21.1988 31.7139 19.4931
C 19.7607 31.6522 22.7368
C 19.7498 31.6057 25.9847
C 20.4709 32.8817 22.7343
C 21.1718 31.609 25.9878
C 21.9351 28.0608 16.2281
C 21.9107 28.0166 19.4792
C 22.6505 29.2934 16.2398
C 23.3316 28.0153 19.4813
C 21.8951 27.9561 22.735
C 21.8865 27.9101 25.9865
C 22.6053 29.187 22.735
C 23.309 27.9097 25.9878
C 19.805 29.3009 16.2121
C 19.7787 29.2508 19.4936
C 20.517 30.5293 16.2346
C 21.2004 29.2496 19.4845
C 19.7635 29.1882 22.7436
C 19.7524 29.141 25.9911
C 20.4727 30.4177 22.7378
C 21.1754 29.1425 25.9888
C 21.9263 35.4686 16.2582
C 21.933 35.3953 19.5196
C 22.6775 36.694 16.2771
C 23.3218 35.4125 19.5218
C 21.877 35.3533 22.7344
C 21.8991 35.2951 25.9628
C 22.6273 36.5779 22.7343
C 23.2893 35.3142 25.9825
H 19.9881 36.3997 16.2663
H 21.3868 36.3437 19.5299
H 19.9364 36.2822 22.7262
H 21.3529 36.2435 25.9314
C 21.9397 32.9956 16.2514
C 21.9126 32.942 19.4987
C 22.6534 34.226 16.2532
C 23.3315 32.9423 19.5006
C 21.8909 32.8827 22.7362
C 21.8835 32.8392 25.9866
C 22.6042 34.113 22.7379
C 23.3036 32.8412 25.9971
H 17.8435 35.1649 16.2745
H 17.7916 35.0434 22.7219
C 19.8009 34.2416 16.2528
C 19.7894 34.161 19.5112
C 20.5344 35.4504 16.2563
C 21.1931 34.186 19.5082
C 19.7526 34.1248 22.7309
C 19.7558 34.0568 25.9589
C 20.4843 35.3335 22.7307
C 21.1607 34.0838 25.9736
C 32.6281 21.9216 16.2721
C 32.5648 21.8322 19.4991
C 33.3132 23.101 16.2634
H 33.6575 21.8447 19.5095
C 32.6312 24.3647 16.2412
C 32.5563 24.3076 19.4974
C 33.3169 25.5762 16.233
H 33.6503 24.3076 19.5062
H 34.407 23.1074 16.2852
C 32.5733 21.8254 22.7141
C 32.537 21.709 25.946
C 33.2571 23.0052 22.7147
H 33.6307 21.7162 25.9151
C 32.573 24.2685 22.723
C 32.5378 24.1882 25.9589
C 33.2531 25.4837 22.7234
H 33.6321 24.1848 25.9235
H 34.3521 23.0126 22.7064
C 32.653 29.2767 16.2558
C 32.5531 29.259 19.5103
C 33.3295 30.5441 16.3755
H 33.6477 29.259 19.5286
H 34.4268 28.041 16.2824
C 32.574 29.1775 22.7316
C 32.5494 29.1359 25.9437
C 33.2582 30.4404 22.7229
H 33.6423 29.1392 25.8943
H 34.3497 27.9613 22.72
C 32.6429 26.8203 16.2173
C 32.5553 26.7829 19.5001
C 33.3322 28.0487 16.235
H 34.4124 25.5686 16.2557
C 32.5732 26.723 22.7306
C 32.5448 26.6643 25.9729
C 33.2537 27.9611 22.7288
H 34.349 25.4822 22.7155
H 22.122 37.6376 16.2973
H 23.5187 37.5777 19.5478
H 22.0721 37.5215 22.7269
H 23.4849 37.4804 25.9343
C 24.0418 36.693 16.2906
C 24.0751 36.636 19.5392
H 24.5966 37.6357 16.3271
C 25.4388 36.6367 19.5475
C 26.186 35.4525 16.2894
C 26.1888 35.4118 19.5383
H 26.7287 36.4029 16.3264
C 27.5811 35.3925 19.546
H 25.9939 37.5803 19.5624
C 23.9912 36.5771 22.7382
C 24.0408 36.539 25.9711
H 24.547 37.5191 22.7333
C 25.4055 36.5418 25.9908
C 26.1346 35.3352 22.7475
C 26.1577 35.3182 26.0158
H 26.6799 36.2841 22.7419
C 27.5504 35.3026 26.0251
H 25.9589 37.4858 25.9705
H 30.2734 35.1027 19.5569
H 30.2428 35.0201 25.9705
H 28.1279 36.342 19.5609
H 28.0957 36.2523 26.0102
C 30.4826 32.9993 16.272
C 30.4385 32.9577 19.5254
H 31.0256 33.948 16.3422
C 31.8744 32.919 19.538
C 30.4264 32.859 22.7376
C 30.4138 32.8712 25.9444
H 30.9744 33.8067 22.725
C 31.8528 32.8247 25.8886
C 28.334 34.2245 16.2758
C 28.313 34.184 19.5337
C 29.7256 34.154 19.5386
C 28.2808 34.0989 22.7495
C 28.2859 34.095 26.0209
C 29.6948 34.0725 25.9941
C 32.6383 31.7444 16.3847
C 32.5554 31.7367 19.5346
H 33.1784 32.6814 16.5477
H 33.6493 31.7256 19.5566
H 34.4133 30.5414 16.53
H 32.414 33.8717 19.5615
C 32.5746 31.6217 22.7207
C 32.5439 31.6274 25.8693
H 33.1126 32.5743 22.7042
H 33.6352 31.6248 25.8046
H 34.3534 30.432 22.7081
H 32.3965 33.7727 25.8404
H 33.6385 26.6629 25.9353
H 19.2101 18.3533 25.8993
H 19.208 35.0039 25.9286
H 14.4216 26.7248 22.803
H 28.8264 35.0476 22.7418
H 33.6494 26.7823 19.511
H 28.8277 18.4057 22.7124
H 19.2704 18.4682 19.9071
H 19.2429 35.1087 19.5203
H 28.8741 35.1761 16.3191
H 14.4434 26.8709 15.9197
H 28.8891 18.5071 16.2967
Li 16.7789 21.8574 14.3608
Li 16.0497 25.6061 17.8987
Li 31.1747 31.6219 27.6992
Li 18.9011 19.878 17.8419
Li 32.0436 30.6037 14.5187
Li 22.0896 18.3859 17.8569
