622
592nano.out 0 0 0
C 24.0777 26.8169 16.2367
C 24.0537 26.7646 19.4609
C 24.7841 28.0585 16.2242
C 25.4806 26.76 19.4631
C 26.2281 25.5931 16.2012
C 26.1907 25.522 19.4556
C 26.9341 26.8359 16.189
C 27.6169 25.5173 19.4608
C 24.0627 29.2902 16.1807
C 24.0578 29.2358 19.4608
C 24.7691 30.5306 16.1036
C 25.4821 29.233 19.4668
C 26.2122 28.0666 16.2
C 26.1928 27.996 19.4691
C 26.9185 29.3075 16.1242
C 27.619 27.9934 19.4763
C 24.0243 26.7068 22.7622
C 24.0147 26.6785 25.9921
C 24.7365 27.9419 22.7696
C 25.4434 26.6831 26.0055
C 26.1625 25.4756 22.753
C 26.16 25.4477 26.0326
C 26.8751 26.7113 22.76
C 27.5871 25.4524 26.1037
C 24.0232 29.1759 22.7781
C 24.0071 29.1508 26.056
C 24.7352 30.4134 22.7848
C 25.4329 29.1551 26.0718
C 26.1626 27.9429 22.7696
C 26.1512 27.9222 26.0436
C 26.8759 29.1792 22.7748
C 27.5781 27.928 26.1139
C 30.5072 25.622 15.8926
C 30.464 25.5142 19.5248
C 31.2133 26.8633 15.8267
C 31.9104 25.5144 19.5917
C 30.4445 25.487 22.7022
C 30.4302 25.4633 26.3486
C 31.1624 26.7139 22.6829
C 31.8733 25.4723 26.4663
C 28.362 26.8457 16.1032
C 28.3296 26.755 19.4785
C 29.0626 28.0861 16.0251
C 29.7581 26.7542 19.509
C 28.3039 26.7137 22.7529
C 28.2941 26.6935 26.1465
C 29.0167 27.9455 22.7536
C 29.7161 26.6984 26.281
C 30.5227 23.1549 15.7937
C 30.4738 23.0414 19.4932
C 31.2279 24.3833 15.7734
C 31.9138 23.0508 19.5518
C 30.4505 23.0219 22.6901
C 30.4417 22.9983 26.4777
C 31.1616 24.2534 22.6711
C 31.8725 23.0157 26.6303
C 28.377 24.375 16.0422
C 28.3281 24.28 19.4576
C 29.0837 25.6138 16.035
C 29.7569 24.2831 19.4795
C 28.3032 24.2476 22.7292
C 28.3013 24.2215 26.1959
C 29.0181 25.4819 22.7333
C 29.7276 24.234 26.3242
C 30.4718 30.5617 15.7666
C 30.4717 30.4706 19.5492
C 31.1718 31.8099 15.6173
C 31.9104 30.4611 19.5573
C 30.449 30.4163 22.709
C 30.4184 30.4065 26.4633
C 31.1589 31.663 22.6602
C 31.8565 30.3961 26.5951
C 24.0319 34.2246 15.7255
C 24.0667 34.1863 19.5041
C 24.7488 35.4626 15.5832
C 25.4905 34.1879 19.498
C 26.177 32.9965 15.8184
C 26.2094 32.9403 19.4989
C 26.8982 34.248 15.6482
C 27.6355 32.9397 19.5561
C 24.0186 34.1231 22.7247
C 23.9914 34.083 26.5086
C 24.7439 35.3621 22.6634
C 25.4121 34.0873 26.5424
C 26.1551 32.8859 22.7609
C 26.1318 32.8556 26.4245
C 26.8776 34.1365 22.7476
C 27.5497 32.8666 26.4965
C 28.3294 31.7781 15.87
C 28.3358 31.7041 19.5332
C 29.0417 33.0317 15.7461
C 29.7644 31.7038 19.568
C 28.2998 31.6463 22.7302
C 28.2692 31.6362 26.3863
C 29.0179 32.906 22.6727
C 29.7072 31.6389 26.4734
C 30.4902 28.0925 15.8847
C 30.4651 27.9965 19.544
C 31.1952 29.3402 15.7619
C 31.9113 27.9972 19.6118
C 30.4472 27.9462 22.7175
C 30.4169 27.9369 26.3927
C 31.1641 29.1908 22.7062
C 31.8607 27.935 26.5732
C 24.0496 31.7586 16.0033
C 24.0625 31.7077 19.4597
C 24.7575 32.9923 15.8617
C 25.4899 31.706 19.4668
C 26.1961 30.5382 16.0723
C 26.1978 30.4694 19.4729
C 26.9017 31.7723 15.9327
C 27.6226 30.4682 19.4927
C 24.0226 31.646 22.7786
C 23.9972 31.6168 26.2436
C 24.7377 32.8839 22.7629
C 25.4246 31.623 26.264
C 26.1617 30.4138 22.7794
C 26.1418 30.394 26.1719
C 26.8728 31.651 22.7631
C 27.5669 30.3993 26.2334
C 28.3416 29.3153 16.0363
C 28.3313 29.2301 19.4919
C 29.0437 30.5573 15.9061
C 29.7567 29.2268 19.5211
C 28.3009 29.1786 22.7626
C 28.285 29.165 26.2059
C 29.0125 30.4179 22.7433
C 29.7077 29.1649 26.3391
H 14.4734 21.8373 15.4397
H 14.9367 20.9235 19.5244
H 14.3911 21.7715 22.5585
H 14.9319 20.7983 26.5596
H 22.1806 16.0065 15.4488
C 22.7232 16.9539 15.5087
H 23.4889 15.955 19.5467
H 22.0996 15.8735 22.5993
C 22.6324 16.8271 22.6415
H 23.5013 15.878 26.7874
H 15.716 19.6851 15.428
C 16.2585 20.6304 15.5146
H 17.0769 19.6737 19.4938
H 17.876 18.4393 15.445
C 18.4173 19.3841 15.5398
H 15.617 19.6189 22.5675
C 16.1682 20.5639 22.5927
H 17.0775 19.5616 26.5894
H 17.7533 18.3577 22.5951
C 18.3103 19.2984 22.6242
H 20.0318 17.2263 15.3754
C 20.5679 18.1747 15.4739
H 21.3482 17.194 19.5236
H 19.9246 17.0987 22.6401
C 20.4622 18.0497 22.6748
H 21.3544 17.1065 26.6654
H 24.6649 16.02 15.5458
H 24.5684 15.8924 22.4986
H 13.6776 25.5531 19.5665
C 14.7707 25.5548 19.5445
H 13.6688 25.4186 26.7317
C 14.7595 25.4239 26.6525
H 13.692 23.0695 19.5215
H 14.4579 24.3204 15.5266
C 14.7857 23.0699 19.5223
H 13.6799 22.9452 26.6426
H 14.3881 24.2471 22.6285
C 14.7725 22.9469 26.6071
H 13.7119 30.5304 19.5893
H 14.4271 31.7185 15.6106
C 14.8063 30.5261 19.5821
H 13.6631 30.371 26.6923
H 14.401 31.6652 22.7655
C 14.7569 30.3772 26.658
H 13.6873 28.0525 19.5852
H 14.4377 29.2412 15.5865
C 14.7804 28.0405 19.5595
H 13.6602 27.8951 26.7113
H 14.3928 29.1911 22.6913
C 14.7514 27.8934 26.6414
C 15.5646 21.8362 15.5126
C 15.4803 21.8739 19.5178
C 16.2392 23.0856 15.6169
C 16.9023 21.8361 19.5464
C 17.6847 20.5909 15.5882
C 17.6262 20.6186 19.4352
C 18.3912 21.8487 15.7316
C 19.0384 20.5868 19.5387
C 15.549 24.3207 15.6178
C 15.4608 24.3181 19.5591
C 16.2308 25.5469 15.6381
C 16.9044 24.3086 19.5278
C 17.6766 23.0792 15.7447
C 17.6167 23.0803 19.5143
C 18.3861 24.3222 15.864
C 19.052 23.0746 19.4785
C 15.4849 21.7617 22.5949
C 15.4704 21.7502 26.5608
C 16.1675 23.0171 22.6002
C 16.8937 21.72 26.5162
C 17.5897 20.5188 22.5954
C 17.6231 20.5089 26.5293
C 18.3049 21.7682 22.6508
C 19.0261 20.4921 26.5438
C 15.4806 24.247 22.6885
C 15.4484 24.2072 26.6014
C 16.1626 25.4785 22.7214
C 16.8912 24.2005 26.4866
C 17.6029 23.004 22.6719
C 17.6034 22.971 26.4536
C 18.3166 24.2443 22.7331
C 19.0365 22.97 26.3501
C 21.9698 20.6396 15.7877
C 21.9047 20.5969 19.4574
C 22.676 21.8713 15.9522
C 23.3234 20.5939 19.4619
C 21.8825 20.5244 22.7259
C 21.8994 20.509 26.422
C 22.5969 21.7619 22.751
C 23.3169 20.5073 26.3627
C 19.8291 21.8528 15.82
C 19.7615 21.8425 19.4915
C 20.53 23.0907 15.9756
C 21.1876 21.8327 19.4612
C 19.7417 21.7606 22.7055
C 19.7484 21.7442 26.4033
C 20.457 23.0006 22.751
C 21.1752 21.7357 26.3173
C 21.969 18.1656 15.5332
C 21.8934 18.1418 19.4825
C 22.6905 19.4103 15.6763
C 23.3035 18.1162 19.5579
C 21.8781 18.0313 22.6668
C 21.8948 18.055 26.5826
C 22.6068 19.2823 22.7042
C 23.3106 18.0371 26.6333
C 19.8355 19.3671 15.5418
C 19.7625 19.3789 19.4879
C 20.5509 20.6268 15.7089
C 21.1742 19.3489 19.4693
C 19.7225 19.2585 22.6453
C 19.7609 19.2807 26.4649
C 20.4509 20.5221 22.6974
C 21.1733 19.2588 26.5726
C 21.9424 25.5684 16.1697
C 21.9118 25.5368 19.4493
C 22.6491 26.8087 16.2097
C 23.3381 25.5313 19.454
C 21.886 25.4701 22.768
C 21.8778 25.4378 26.0501
C 22.5986 26.7059 22.7661
C 23.3049 25.4391 26.0094
C 15.5303 29.2468 15.6581
C 15.478 29.2705 19.5869
C 16.2104 30.4851 15.6764
C 16.919 29.2706 19.5445
C 17.6655 28.0295 15.8062
C 17.6315 28.0225 19.4953
C 18.3675 29.2603 15.8621
C 19.0625 28.0162 19.4587
C 15.4872 29.1837 22.7232
C 15.4392 29.1244 26.6164
C 16.1737 30.4142 22.7229
C 16.8752 29.1346 26.4972
C 17.615 27.9481 22.7128
C 17.5935 27.8949 26.3935
C 18.3258 29.1767 22.7297
C 19.0184 27.9005 26.2392
C 19.7968 26.7959 16.0486
C 19.7717 26.7787 19.4477
C 20.5038 28.036 16.0887
C 21.2013 26.7737 19.4469
C 19.7477 26.7076 22.7647
C 19.7324 26.6703 26.1667
C 20.4612 27.9417 22.7648
C 21.1604 26.672 26.0691
C 21.9557 23.0989 16.0419
C 21.9031 23.0674 19.4486
C 22.6632 24.3372 16.1466
C 23.3313 23.0622 19.441
C 21.883 22.9984 22.7606
C 21.885 22.9679 26.1708
C 22.5972 24.235 22.765
C 23.314 22.9683 26.1238
C 15.5402 26.7823 15.7295
C 15.4525 26.7946 19.5558
C 16.2215 28.0244 15.6523
C 16.9102 26.7898 19.5061
C 17.6755 25.5488 15.8033
C 17.6252 25.5507 19.4899
C 18.3745 26.7909 15.9018
C 19.0547 25.5468 19.4551
C 15.4843 26.7127 22.7097
C 15.4362 26.6541 26.611
C 16.1661 27.9485 22.6494
C 16.8849 26.6603 26.4674
C 17.6084 25.4719 22.7375
C 17.6027 25.4353 26.3885
C 18.321 26.709 22.7455
C 19.0236 25.4356 26.2453
C 19.81 24.3229 15.9993
C 19.7663 24.3099 19.4553
C 20.515 25.5607 16.0916
C 21.1936 24.3046 19.4485
C 19.7473 24.2369 22.7574
C 19.7423 24.2032 26.2264
C 20.4598 25.4702 22.7697
C 21.1675 24.2013 26.1307
C 24.11 16.9621 15.5638
C 24.0455 16.8963 19.5334
C 24.8439 18.1794 15.6364
C 25.4256 16.8857 19.5346
H 25.9689 15.9362 19.5383
H 26.8096 17.2685 15.5444
C 24.1119 19.4164 15.7206
C 24.0342 19.3521 19.5026
C 24.8243 20.6562 15.8507
C 25.454 19.3384 19.5273
C 26.2588 18.2107 15.6274
C 26.1747 18.0915 19.5658
C 26.9701 19.4198 15.6486
C 27.5914 18.1016 19.5521
C 24.025 16.8377 22.5702
C 24.048 16.8223 26.6981
C 24.7605 18.0516 22.6259
C 25.4352 16.8138 26.6244
H 25.9721 15.8619 26.6646
H 26.7189 17.1321 22.5941
C 24.0278 19.2898 22.6962
C 24.0369 19.2706 26.4787
C 24.7431 20.5322 22.714
C 25.455 19.2657 26.4702
C 26.1758 18.0803 22.6506
C 26.1839 18.0195 26.5732
C 26.8917 19.286 22.6227
C 27.5985 18.0394 26.5762
H 28.1236 17.1476 19.5752
H 28.1388 17.0928 26.6547
C 30.5187 20.6906 15.7465
C 30.482 20.5476 19.5911
C 31.2392 21.9161 15.6734
C 31.9035 20.5944 19.6679
C 30.4404 20.5611 22.6994
C 30.4582 20.5196 26.6408
C 31.1655 21.7751 22.7077
C 31.8792 20.5677 26.7058
C 24.0917 24.3447 16.1723
C 24.0482 24.2943 19.4481
C 24.8002 25.584 16.222
C 25.4752 24.288 19.4469
C 26.2414 23.1245 16.0674
C 26.1862 23.0495 19.447
C 26.95 24.3634 16.1248
C 27.6145 23.0452 19.4521
C 24.024 24.2363 22.7573
C 24.023 24.2047 26.0403
C 24.737 25.4717 22.7567
C 25.4511 24.209 26.0511
C 26.1638 23.0057 22.7359
C 26.169 22.9747 26.1417
C 26.8764 24.2418 22.742
C 27.5942 22.9828 26.2157
C 28.3849 21.9149 15.8406
C 28.3254 21.806 19.4809
C 29.0921 23.1457 15.9058
C 29.7658 21.8074 19.5065
C 28.3086 21.7837 22.6853
C 28.3093 21.7497 26.369
C 29.0156 23.0144 22.7058
C 29.742 21.7624 26.501
H 30.3015 18.3889 19.6277
H 31.0715 19.7524 15.6219
H 30.3005 18.3588 26.717
H 30.9927 19.6165 22.6611
C 24.1032 21.8803 15.981
C 24.0436 21.8281 19.4414
C 24.8126 23.115 16.092
C 25.4679 21.8183 19.451
C 26.2435 20.6649 15.8126
C 26.1798 20.5767 19.4939
C 26.9596 21.8969 15.9217
C 27.6076 20.5676 19.514
C 24.0226 21.7658 22.7439
C 24.0315 21.7375 26.2166
C 24.7358 23.0015 22.7481
C 25.4578 21.7383 26.2212
C 26.1623 20.5369 22.6802
C 26.1735 20.5068 26.3591
C 26.8804 21.7706 22.7079
C 27.6026 20.5104 26.4261
C 28.3874 19.4523 15.733
C 28.3349 19.3023 19.57
C 29.1094 20.6672 15.6895
C 29.7507 19.3321 19.5748
C 28.3058 19.3202 22.7532
C 28.3327 19.2524 26.5684
C 29.0375 20.5341 22.6425
C 29.7436 19.2959 26.6318
H 32.4595 19.6562 19.7516
H 33.2064 20.9944 15.6245
H 32.4296 19.6244 26.7674
H 33.1263 20.8599 22.7318
H 14.968 32.6685 19.6156
H 14.9035 32.5178 26.7161
C 15.5207 31.7309 15.6246
C 15.5037 31.7141 19.591
C 16.2053 32.9363 15.5906
C 16.9328 31.7452 19.6022
C 17.6485 30.4995 15.7539
C 17.6391 30.4946 19.5336
C 18.3533 31.7334 15.7306
C 19.0707 30.4906 19.4801
H 15.6556 33.8808 15.5505
H 17.1133 33.9014 19.5763
C 17.6345 32.9839 15.615
C 17.6568 32.9529 19.5194
C 18.3409 34.192 15.5767
C 19.0638 32.9721 19.4918
C 15.4944 31.6695 22.7394
C 15.4448 31.5669 26.6712
C 16.1829 32.8709 22.7086
C 16.8746 31.6057 26.6353
C 17.6133 30.4219 22.7059
C 17.585 30.3635 26.4831
C 18.3238 31.6551 22.6877
C 19.0141 30.3722 26.3411
H 15.6369 33.819 22.7174
H 17.0408 33.7643 26.6662
C 17.6117 32.9126 22.6697
C 17.5893 32.8214 26.5729
C 18.3239 34.12 22.6618
C 18.9953 32.8508 26.4915
C 21.9178 30.5154 16.0576
C 21.9208 30.4773 19.455
C 22.6226 31.7509 15.9832
C 23.3475 30.4746 19.4563
C 21.8864 30.413 22.7679
C 21.861 30.379 26.1692
C 22.5974 31.6471 22.7666
C 23.289 30.3835 26.1391
C 19.7787 31.7383 15.8364
C 19.781 31.7166 19.478
C 20.4767 32.9739 15.7623
C 21.2089 31.7151 19.4724
C 19.7521 31.6514 22.7161
C 19.7179 31.6013 26.3705
C 20.4553 32.8878 22.6957
C 21.1444 31.6073 26.3046
C 21.9301 28.042 16.1711
C 21.9164 28.0054 19.4508
C 22.6369 29.2819 16.155
C 23.343 28.0019 19.4588
C 21.8875 27.9405 22.7689
C 21.8689 27.9081 26.0483
C 22.5996 29.1753 22.7742
C 23.2965 27.9123 26.0145
C 19.7891 29.2688 15.993
C 19.78 29.248 19.4578
C 20.4937 30.5089 15.9783
C 21.2045 29.2432 19.4492
C 19.7511 29.1774 22.7526
C 19.7278 29.1378 26.2138
C 20.4625 30.4147 22.7506
C 21.1499 29.1421 26.1217
C 21.8817 35.4626 15.6159
C 21.9277 35.41 19.5461
C 22.6231 36.6779 15.5701
C 23.3378 35.4309 19.548
C 21.8723 35.3741 22.6899
C 21.8504 35.2965 26.5948
C 22.6219 36.5883 22.7104
C 23.2575 35.3205 26.5943
H 19.9243 36.385 15.5345
H 21.3842 36.3583 19.6119
H 19.92 36.3077 22.6769
H 21.3022 36.2411 26.6721
C 21.9017 32.9798 15.8329
C 21.9284 32.9462 19.508
C 22.6127 34.2232 15.7265
C 23.3479 32.9444 19.4818
C 21.8812 32.8856 22.7288
C 21.8598 32.839 26.4202
C 22.5987 34.1292 22.7166
C 23.277 32.8441 26.379
H 17.7881 35.133 15.4994
H 17.7727 35.0654 22.6502
C 19.7438 34.2247 15.6229
C 19.7929 34.1765 19.511
C 20.4711 35.4401 15.5995
C 21.2015 34.201 19.5844
C 19.7267 34.146 22.6587
C 19.7186 34.0576 26.5425
C 20.4634 35.3585 22.6833
C 21.1277 34.0847 26.5919
C 32.6599 21.9459 15.6559
C 32.5953 21.8081 19.6545
C 33.3515 23.1474 15.6528
H 33.6871 21.8041 19.7127
C 32.6696 24.3912 15.6441
C 32.5948 24.2895 19.5481
C 33.3517 25.6326 15.6089
H 33.6856 24.2843 19.6377
H 34.4451 23.1457 15.6419
C 32.5875 21.8111 22.716
C 32.5588 21.7656 26.699
C 33.2845 23.0082 22.6741
H 33.6513 21.7806 26.7566
C 32.607 24.265 22.6434
C 32.5596 24.2464 26.5479
C 33.2949 25.4841 22.6358
H 33.6497 24.2523 26.6412
H 34.3781 23.0074 22.6649
C 32.6319 29.3431 15.6411
C 32.5951 29.2244 19.5791
C 33.3012 30.5996 15.5918
H 33.6885 29.2253 19.6404
H 34.4256 28.1341 15.551
C 32.607 29.1842 22.6865
C 32.543 29.1663 26.5909
C 33.281 30.4363 22.7048
H 33.6341 29.1686 26.6763
H 34.3916 27.9564 22.6769
C 32.666 26.8694 15.6663
C 32.5945 26.756 19.5045
C 33.3353 28.1161 15.6351
H 34.4395 25.6356 15.5066
C 32.6171 26.712 22.6444
C 32.5482 26.7047 26.5203
C 33.2979 27.9526 22.6786
H 34.3886 25.4785 22.6137
H 22.0709 37.6213 15.528
H 23.5348 37.5907 19.619
H 22.0745 37.5359 22.7134
H 23.4429 37.4818 26.689
C 24.0018 36.6778 15.5503
C 24.0841 36.6461 19.5783
H 24.5527 37.6218 15.4905
C 25.4736 36.6498 19.5541
C 26.1626 35.454 15.6575
C 26.2247 35.4348 19.5362
H 26.7019 36.4023 15.5653
C 27.6385 35.4113 19.5569
H 26.0196 37.597 19.5861
C 23.9975 36.5824 22.6919
C 23.998 36.5399 26.6652
H 24.5525 37.5257 22.6721
C 25.3821 36.545 26.7108
C 26.1533 35.3417 22.729
C 26.1362 35.3307 26.6758
H 26.699 36.2893 22.681
C 27.5375 35.3217 26.7206
H 25.9269 37.4915 26.7703
H 30.3237 35.1085 19.6401
H 30.2296 35.0516 26.745
H 28.1822 36.3596 19.5773
H 28.0739 36.2711 26.8113
C 30.4453 33.0173 15.6803
C 30.4798 32.9579 19.6075
H 30.9846 33.9648 15.5899
C 31.9069 32.9132 19.5872
C 30.4327 32.8786 22.7612
C 30.4151 32.8969 26.6123
H 30.9803 33.8249 22.6898
C 31.8423 32.8536 26.6947
C 28.3072 34.2331 15.6775
C 28.3682 34.1982 19.6062
C 29.7702 34.1656 19.6179
C 28.2891 34.1101 22.7288
C 28.2683 34.1266 26.6548
C 29.6869 34.1064 26.6553
C 32.5997 31.7848 15.5789
C 32.594 31.7093 19.5579
H 33.1304 32.7405 15.5297
H 33.6872 31.6975 19.5517
H 34.3948 30.6055 15.5525
H 32.4557 33.8585 19.593
C 32.5844 31.6293 22.6823
C 32.5328 31.6491 26.7022
H 33.1251 32.5812 22.6521
H 33.6235 31.6468 26.7837
H 34.3754 30.439 22.7016
H 32.385 33.7987 26.7882
H 33.6379 26.7085 26.6184
H 19.218 18.3333 26.5457
H 19.17 35 26.6418
H 14.3916 26.7155 22.6498
H 28.8334 35.058 22.667
H 33.6841 26.7555 19.6186
H 28.8553 18.3755 22.6798
H 19.2135 18.4325 19.5364
H 19.2473 35.1234 19.579
H 28.8468 35.1787 15.5707
H 14.4491 26.7796 15.6306
H 28.942 18.5134 15.6337
Li 31.155 31.8034 17.7158
Li 16.0608 23.017 24.6842
Li 23.2888 18.0569 17.4663
Li 24.7869 35.4279 24.7592
Li 31.9168 23.1411 24.5354
Li 16.8846 31.8492 17.5175
Li 27.1901 34.2178 17.6971
Li 21.0519 34.4303 17.5333
Li 32.0254 27.8873 24.527
Li 15.9169 27.8891 24.7009
Li 18.7928 20.4779 24.4945
Li 29.2981 20.3793 24.6939
Li 19.1152 20.2876 17.4919
Li 26.8169 19.136 17.6927
Li 21.1493 19.1293 24.5264
Li 26.9239 19.0126 24.6657
Li 28.9887 33.1827 24.7112
Li 21.0567 34.2265 24.5411
Li 16.0529 28.1852 17.6977
Li 16.0292 25.4196 17.6823
Li 16.9774 31.7168 24.5502
Li 32.1457 28.2208 17.5676
Li 29.1457 20.4618 17.7184
Li 32.2699 25.4663 17.5512
Li 24.6738 35.5608 17.6762
Li 31.3809 31.6862 24.7403
Li 16.73 21.7822 17.4658
Li 23.807 17.6494 24.5859
Li 31.5642 21.6665 17.7325
Li 18.6505 33.9942 21.0314
