592       
Initial atomic coordinates
C    24.075521   26.836473   16.270756
C    24.049493   26.784988   19.506527
C    24.786934   28.068404   16.256389
C    25.471483   26.784965   19.503269
C    26.209118   25.603973   16.239125
C    26.182280   25.554987   19.497212
C    26.919145   26.836491   16.229989
C    27.604710   25.555260   19.488930
C    24.076452   29.299722   16.237586
C    24.048480   29.246922   19.497535
C    24.788316   30.532005   16.215607
C    25.470204   29.245097   19.495260
C    26.208913   28.068916   16.237502
C    26.182397   28.014868   19.497572
C    26.920249   29.301552   16.215325
C    27.604772   28.014485   19.490171
C    24.027297   26.722141   22.720985
C    24.010273   26.670000   25.957205
C    24.738305   27.953331   22.723559
C    25.433190   26.669817   25.969801
C    26.159314   25.490061   22.730471
C    26.144513   25.438973   25.989419
C    26.868684   26.721969   22.733055
C    27.567811   25.438840   26.012185
C    24.028426   29.183952   22.729654
C    24.009246   29.133241   25.987366
C    24.739873   30.415447   22.739199
C    25.431874   29.131546   25.996131
C    26.159370   27.953990   22.729709
C    26.144500   27.900531   25.987994
C    26.870188   29.185922   22.739042
C    27.567795   27.899926   26.012027
C    30.478535   25.604565   16.212141
C    30.447847   25.553536   19.489265
C    31.187969   26.836792   16.224774
C    31.884502   25.556351   19.505693
C    30.425020   25.490187   22.743878
C    30.413606   25.436559   26.007200
C    31.134032   26.721512   22.740250
C    31.851352   25.438886   25.959083
C    28.341258   26.836441   16.208256
C    28.314798   26.784847   19.487252
C    29.052198   28.069475   16.203143
C    29.740853   26.784906   19.486995
C    28.289763   26.721767   22.742492
C    28.278569   26.669317   26.017363
C    29.000074   27.954002   22.745851
C    29.705763   26.668934   26.019782
C    30.479618   23.142341   16.232445
C    30.445493   23.089458   19.488020
C    31.187433   24.370258   16.232700
C    31.883914   23.100807   19.506665
C    30.426160   23.029722   22.735966
C    30.411470   22.970776   25.993115
C    31.133493   24.256513   22.736681
C    31.850590   22.981172   25.945725
C    28.343611   24.372677   16.203838
C    28.314038   24.323142   19.483225
C    29.052379   25.603550   16.202516
C    29.739125   24.323253   19.484092
C    28.292074   24.259321   22.743439
C    28.277925   24.205891   26.023819
C    28.999955   25.489374   22.745060
C    29.704335   24.205691   26.016832
C    30.479068   30.530910   16.238924
C    30.445437   30.480590   19.501355
C    31.188873   31.782434   16.289703
C    31.883796   30.469473   19.522782
C    30.426675   30.413608   22.743094
C    30.411216   30.367165   26.003341
C    31.136333   31.665003   22.727961
C    31.850352   30.356665   25.957828
C    24.073345   34.228480   16.240912
C    24.051329   34.172496   19.502842
C    24.801850   35.469218   16.291765
C    25.467498   34.171316   19.508742
C    26.209815   32.997369   16.227672
C    26.181285   32.940702   19.497223
C    26.930446   34.241094   16.280103
C    27.602157   32.938985   19.506465
C    24.024865   34.108749   22.745393
C    24.012171   34.062023   26.003992
C    24.753459   35.349002   22.730817
C    25.429482   34.060741   26.008289
C    26.160321   32.878849   22.747299
C    26.143886   32.829467   26.025784
C    26.880678   34.121784   22.736046
C    27.565655   32.827640   26.017750
C    28.344284   31.765126   16.227183
C    28.313917   31.709279   19.496948
C    29.060609   33.011255   16.279626
C    29.736489   31.706491   19.508046
C    28.293492   31.647527   22.746829
C    28.277909   31.597127   26.025754
C    29.009478   32.893078   22.735429
C    29.701457   31.593789   26.008035
C    30.478342   28.068759   16.213465
C    30.447845   28.016316   19.491912
C    31.187051   29.303306   16.236268
C    31.884412   28.013825   19.509014
C    30.425198   27.952983   22.744776
C    30.413383   27.901263   26.009232
C    31.133849   29.186573   22.739306
C    31.851094   27.898863   25.961878
C    24.075747   31.763526   16.205943
C    24.049218   31.709229   19.487860
C    24.789037   32.998568   16.215944
C    25.468514   31.706996   19.488486
C    26.209709   30.532289   16.211216
C    26.180395   30.475548   19.488868
C    26.923069   31.768237   16.213078
C    27.602784   30.474644   19.488230
C    24.027562   31.645945   22.746220
C    24.009936   31.596937   26.025614
C    24.740151   32.879965   22.748995
C    25.430387   31.594977   26.028930
C    26.160264   30.415798   22.742795
C    26.142690   30.362738   26.020808
C    26.873188   31.650743   22.747880
C    27.566043   30.361767   26.029082
C    28.343303   29.300238   16.205116
C    28.314113   29.246597   19.487299
C    29.055899   30.535638   16.214896
C    29.739201   29.246665   19.489785
C    28.292287   29.184256   22.745597
C    28.277847   29.132697   26.025887
C    29.004554   30.418473   22.748038
C    29.704170   29.132208   26.021091
H    14.459556   21.891980   16.375325
H    14.963775   20.933641   19.543905
H    14.414964   21.782724   22.639601
H    14.917195   20.818407   25.827682
H    22.130245   16.040885   16.359305
C    22.682616   16.983236   16.306695
H    23.522539   15.990882   19.538352
H    22.084715   15.931633   22.618092
C    22.636344   16.874703   22.658020
H    23.486417   15.870567   25.824274
H    15.694125   19.756756   16.360401
C    16.235050   20.705617   16.308001
H    17.101403   19.700909   19.525248
H    17.839200   18.518035   16.322293
C    18.385701   19.466250   16.273318
H    15.649905   19.646851   22.617915
C    16.191655   20.595670   22.658338
H    17.057993   19.582968   25.848548
H    17.794159   18.408460   22.624014
C    18.341407   19.356621   22.666172
H    19.986388   17.278772   16.322241
C    20.534191   18.226148   16.273150
H    21.387056   17.226324   19.523392
H    19.940245   17.168922   22.624844
C    20.488428   18.116661   22.666538
H    21.346961   17.107561   25.846678
H    24.597212   16.037566   16.372018
H    24.552112   15.929248   22.637327
H    13.731139   25.547714   19.544714
C    14.826740   25.546692   19.517823
H    13.687598   25.430962   25.871511
C    14.781556   25.430126   25.926748
H    13.731475   23.070888   19.554836
H    14.461500   24.361623   16.363004
C    14.824785   23.065279   19.526547
H    13.688228   22.955805   25.836484
H    14.416628   24.249183   22.671973
C    14.779952   22.948730   25.893084
H    13.732049   30.503097   19.555844
H    14.460012   31.783517   16.396236
C    14.825373   30.507803   19.530417
H    13.687675   30.385276   25.839815
H    14.415044   31.662852   22.674257
C    14.779352   30.392095   25.898212
H    13.731199   28.025390   19.540890
H    14.461336   29.313659   16.371512
C    14.826826   28.026191   19.516566
H    13.687569   27.909060   25.870841
H    14.416386   29.196150   22.684097
C    14.781425   27.910328   25.927133
C    15.551856   21.885919   16.315581
C    15.505017   21.883954   19.521106
C    16.234317   23.150429   16.270730
C    16.940852   21.842557   19.498912
C    17.671642   20.663175   16.260830
C    17.649615   20.648353   19.502798
C    18.382714   21.912872   16.219814
C    19.067229   20.613896   19.491393
C    15.554627   24.362923   16.299744
C    15.506436   24.330320   19.507338
C    16.234293   25.607914   16.266889
C    16.943637   24.321011   19.488057
C    17.673404   23.139641   16.224689
C    17.650627   23.093770   19.484232
C    18.380915   24.374401   16.207019
C    19.072606   23.088483   19.479396
C    15.508668   21.775312   22.669566
C    15.459581   21.766460   25.888567
C    16.191064   23.038704   22.704135
C    16.895869   21.724310   25.939468
C    17.628001   20.553154   22.686092
C    17.605784   20.529127   25.912584
C    18.338774   21.801631   22.719674
C    19.024152   20.495358   25.949746
C    15.511397   24.249579   22.700436
C    15.461295   24.213515   25.943615
C    16.190909   25.493909   22.717887
C    16.898825   24.203745   25.992415
C    17.629780   23.027508   22.726290
C    17.606153   22.975775   25.989908
C    18.336657   24.261083   22.738011
C    19.029476   22.970999   26.013890
C    21.941080   20.677373   16.201676
C    21.916093   20.627837   19.479924
C    22.655168   21.911609   16.198530
C    23.336138   20.626797   19.478408
C    21.894265   20.566971   22.730903
C    21.875654   20.509244   26.001600
C    22.607828   21.800293   22.739591
C    23.296535   20.507772   26.013337
C    19.806582   21.909578   16.201941
C    19.783408   21.859235   19.480393
C    20.519076   23.144746   16.198736
C    21.203522   21.855981   19.479426
C    19.761507   21.798376   22.731027
C    19.740875   21.741415   26.001853
C    20.473358   23.032703   22.739718
C    21.162332   21.738312   26.015970
C    21.928119   18.206153   16.260174
C    21.933659   18.174672   19.501315
C    22.655524   19.446243   16.219092
C    23.322351   18.157679   19.496324
C    21.881597   18.097111   22.686168
C    21.892969   18.054632   25.911185
C    22.608012   19.336551   22.719341
C    23.283212   18.036935   25.937286
C    19.800514   19.435724   16.247269
C    19.791378   19.411030   19.499377
C    20.518880   20.679167   16.209806
C    21.195392   19.385085   19.490827
C    19.755369   19.325958   22.689207
C    19.749754   19.292355   25.912344
C    20.473141   20.568587   22.721469
C    21.154753   19.265767   25.949262
C    21.941142   25.605957   16.240002
C    21.917749   25.553012   19.497891
C    22.652459   26.836673   16.258377
C    23.338597   25.553683   19.503921
C    21.894176   25.492348   22.730069
C    21.877005   25.437525   25.990456
C    22.605166   26.722217   22.724245
C    23.298876   25.438028   25.971776
C    15.554458   29.312384   16.307353
C    15.506604   29.242409   19.508383
C    16.234387   30.524820   16.283278
C    16.943888   29.251026   19.490919
C    17.671768   28.069881   16.221445
C    17.652399   28.017311   19.483885
C    18.380943   29.300749   16.211935
C    19.077456   28.017909   19.482824
C    15.511203   29.195437   22.709793
C    15.460768   29.127086   25.946079
C    16.191041   30.406169   22.720135
C    16.898379   29.136481   25.995361
C    17.627677   27.953732   22.738138
C    17.607458   27.902177   26.015826
C    18.336681   29.183847   22.743372
C    19.033780   27.902904   26.025180
C    19.806910   26.837245   16.211048
C    19.787692   26.785398   19.485313
C    20.517686   28.067686   16.216474
C    21.208614   26.785174   19.494653
C    19.761279   26.722472   22.740418
C    19.745024   26.670094   26.019501
C    20.471630   27.951947   22.738597
C    21.167092   26.670043   25.997639
C    21.942800   23.143747   16.206807
C    21.916577   23.090970   19.484664
C    22.653775   24.374901   16.231529
C    23.336780   23.091403   19.488263
C    21.896018   23.031705   22.739076
C    21.875966   22.974166   26.017560
C    22.606516   24.262078   22.732486
C    23.297395   22.974371   26.013308
C    15.555049   26.837664   16.304844
C    15.507742   26.786349   19.503674
C    16.234201   28.067501   16.269920
C    16.943338   26.786036   19.487340
C    17.671851   25.605391   16.219076
C    17.652305   25.554471   19.482861
C    18.379637   26.837604   16.208659
C    19.077378   25.553114   19.481876
C    15.511524   26.722469   22.708132
C    15.462036   26.670242   25.957156
C    16.190760   27.951073   22.721158
C    16.897990   26.670103   26.003495
C    17.627743   25.491325   22.735659
C    17.607676   25.438131   26.014913
C    18.335017   26.722535   22.740609
C    19.033940   25.437195   26.025038
C    19.807404   24.373873   16.202159
C    19.784983   24.322687   19.481993
C    20.517661   25.606624   16.216180
C    21.206928   24.321014   19.488496
C    19.761959   24.260813   22.740576
C    19.742446   24.206296   26.023320
C    20.471606   25.492861   22.737556
C    21.165598   24.204939   26.013028
C    24.046696   16.981046   16.313237
C    24.075318   16.934699   19.516116
C    24.801467   18.203938   16.268477
C    25.438589   16.936042   19.519266
H    25.988736   15.991421   19.544888
H    26.736496   17.273296   16.358852
C    24.073048   19.444872   16.223405
C    24.051134   19.397940   19.482042
C    24.789148   20.674683   16.205952
C    25.467390   19.399008   19.484577
C    26.191805   18.221103   16.296717
C    26.193273   18.158918   19.501081
C    26.930738   19.432013   16.264240
C    27.586470   18.178837   19.509404
C    23.999562   16.872809   22.668008
C    24.037270   16.813909   25.884937
C    24.753102   18.095044   22.702210
C    25.401310   16.815693   25.888153
H    25.952527   15.872986   25.830917
H    26.687614   17.162798   22.668693
C    24.024468   19.335220   22.725180
C    24.011986   19.277672   25.988237
C    24.739764   20.563923   22.736912
C    25.429224   19.278709   25.989852
C    26.141825   18.111611   22.697537
C    26.155896   18.038510   25.939103
C    26.880180   19.322012   22.715011
C    27.549486   18.058447   25.921186
H    28.134648   17.230733   19.533165
H    28.097387   17.111662   25.864682
C    30.479696   20.695434   16.303305
C    30.447311   20.614421   19.501659
C    31.189640   21.890852   16.279083
C    31.883711   20.656906   19.522201
C    30.426533   20.584490   22.705335
C    30.411646   20.494331   25.941494
C    31.135548   21.778334   22.715432
C    31.848109   20.536098   25.892752
C    24.076621   24.373232   16.240089
C    24.048310   24.323000   19.497806
C    24.787105   25.604549   16.258488
C    25.470066   24.324786   19.494440
C    26.210088   23.140659   16.210523
C    26.180264   23.094331   19.484452
C    26.920564   24.371416   16.216033
C    27.602735   23.095150   19.481355
C    24.028405   24.260260   22.730208
C    24.009275   24.206700   25.991030
C    24.738298   25.490859   22.724437
C    25.431914   24.208024   25.998565
C    26.160055   23.028180   22.739997
C    26.142734   22.976675   26.019922
C    26.869998   24.257969   22.738424
C    27.566120   22.976970   26.025054
C    28.344971   21.907743   16.219351
C    28.314053   21.860629   19.480933
C    29.056429   23.137429   16.209880
C    29.736756   21.863478   19.486742
C    28.292999   21.796087   22.735962
C    28.278057   21.741500   26.014099
C    29.004119   23.024997   22.741450
C    29.701611   21.744190   25.992495
H    30.280473   18.468791   19.529759
H    31.027272   19.749182   16.366437
H    30.242663   18.349140   25.864763
H    30.974871   19.637237   22.678744
C    24.075869   21.909666   16.201735
C    24.048854   21.860825   19.481245
C    24.788614   23.141005   16.215993
C    25.468275   21.863024   19.480620
C    26.210089   20.675836   16.217449
C    26.181269   20.629457   19.480165
C    26.923618   21.904849   16.207283
C    27.602233   20.631077   19.483462
C    24.027340   21.798090   22.740207
C    24.009969   21.742811   26.023283
C    24.739717   23.028587   22.737466
C    25.430405   21.744468   26.024791
C    26.159909   20.565019   22.733856
C    26.143810   20.509833   26.013238
C    26.872783   21.793092   22.739168
C    27.565584   20.511222   26.000951
C    28.335780   19.458215   16.301473
C    28.319603   19.388095   19.496934
C    29.061466   20.661475   16.266844
C    29.733801   19.417902   19.508199
C    28.284155   19.347989   22.704471
C    28.283040   19.267821   25.952613
C    29.008819   20.550464   22.717763
C    29.697437   19.297631   25.921847
H    32.426285   19.707860   19.545516
H    33.166931   20.983904   16.389124
H    32.387706   19.586736   25.833998
H    33.111519   20.867851   22.666072
H    14.965946   32.639707   19.559336
H    14.917768   32.523213   25.839754
C    15.552259   31.789187   16.336247
C    15.506156   31.688760   19.532293
C    16.235889   32.969194   16.336407
C    16.941891   31.729332   19.511658
C    17.673448   30.535469   16.235627
C    17.651203   30.477861   19.491676
C    18.383099   31.762033   16.236262
C    19.073153   30.482416   19.486390
H    15.695602   33.917836   16.395641
H    17.103185   33.870904   19.547144
C    17.672363   33.011508   16.287198
C    17.650828   32.923182   19.521455
C    18.386508   34.208248   16.306733
C    19.068309   32.956858   19.509440
C    15.508772   31.669834   22.701074
C    15.459122   31.574384   25.898290
C    16.191535   32.849563   22.704146
C    16.895510   31.615971   25.949287
C    17.629805   30.417421   22.739279
C    17.605828   30.364431   25.995472
C    18.338811   31.643263   22.740545
C    19.029242   30.369011   26.017721
H    15.649048   33.798488   22.679998
H    17.058269   33.757601   25.862654
C    17.627984   32.892148   22.725264
C    17.605621   32.811159   25.925175
C    18.341396   34.088809   22.718622
C    19.024059   32.844709   25.961129
C    21.942856   30.529784   16.209133
C    21.917005   30.479186   19.487949
C    22.655153   31.761908   16.204435
C    23.337130   30.478625   19.490463
C    21.896118   30.412703   22.743001
C    21.875899   30.365851   26.016693
C    22.607999   31.643961   22.746847
C    23.297327   30.365535   26.011308
C    19.806883   31.764866   16.214859
C    19.784167   31.711359   19.491766
C    20.519263   32.995163   16.228048
C    21.204187   31.714349   19.488704
C    19.761629   31.646336   22.746508
C    19.740754   31.598582   26.008209
C    20.473361   32.876012   22.743953
C    21.162268   31.601637   26.020027
C    21.941138   28.067508   16.239126
C    21.917917   28.017158   19.497271
C    22.653724   29.298436   16.230209
C    23.338679   28.016346   19.503177
C    21.894221   27.952156   22.730259
C    21.876953   27.902568   25.988294
C    22.606579   29.182288   22.732999
C    23.298832   27.901966   25.969084
C    19.807457   29.300619   16.205050
C    19.785281   29.247997   19.484469
C    20.519230   30.529534   16.203998
C    21.207244   29.249287   19.489440
C    19.761969   29.184017   22.744321
C    19.742313   29.133779   26.023622
C    20.473433   30.411954   22.746123
C    21.165481   29.135076   26.011274
C    21.928962   35.467320   16.289565
C    21.933970   35.395945   19.529395
C    22.683447   36.690001   16.340704
C    23.322519   35.412758   19.525245
C    21.882051   35.347563   22.726166
C    21.893141   35.285756   25.931128
C    22.636713   36.570247   22.707529
C    23.283451   35.302934   25.959225
H    19.988064   36.395123   16.363434
H    21.387210   36.344199   19.557347
H    19.940946   36.276535   22.693273
H    21.347730   36.233386   25.869519
C    21.941369   32.996392   16.215919
C    21.916750   32.942483   19.493980
C    22.655959   34.227401   16.239166
C    23.336669   32.943464   19.491126
C    21.894506   32.877425   22.747356
C    21.875636   32.830745   26.009945
C    22.608395   34.107740   22.742926
C    23.296552   32.831945   26.021397
H    17.840595   35.156330   16.364002
H    17.794355   35.037769   22.696488
C    19.801215   34.238480   16.276020
C    19.792501   34.159356   19.522276
C    20.535132   35.447744   16.307241
C    21.196234   34.185361   19.512249
C    19.755572   34.118949   22.730236
C    19.749613   34.047921   25.926466
C    20.488800   35.328189   22.717606
C    21.154718   34.074525   25.963417
C    32.626059   21.932886   16.330449
C    32.565841   21.836952   19.525215
C    33.306720   23.114918   16.330276
H    33.659109   21.843677   19.551257
C    32.625207   24.380048   16.282120
C    32.563264   24.311700   19.516676
C    33.304886   25.596895   16.300907
H    33.657498   24.310504   19.541590
H    34.398985   23.121454   16.388113
C    32.571364   21.818854   22.693959
C    32.532079   21.716141   25.893174
C    33.252046   22.999933   22.695764
H    33.624555   21.721416   25.834185
C    32.570707   24.265274   22.718562
C    32.530914   24.193667   25.921954
C    33.250184   25.481616   22.710024
H    33.624358   24.192308   25.858961
H    34.345347   23.004390   22.669423
C    32.624830   29.294078   16.285113
C    32.563059   29.258489   19.526037
C    33.306138   30.559381   16.335858
H    33.657214   29.259577   19.553543
H    34.399056   28.076323   16.356238
C    32.571007   29.177724   22.719389
C    32.530451   29.144186   25.929268
C    33.252547   30.442983   22.699503
H    33.623832   29.145697   25.867334
H    34.345613   27.960654   22.680979
C    32.624010   26.837029   16.271115
C    32.563396   26.785112   19.518297
C    33.304668   28.077301   16.301613
H    34.399235   25.597940   16.356696
C    32.569513   26.721474   22.723354
C    32.530544   26.668980   25.924445
C    33.250288   27.961211   22.708664
H    34.345567   25.482053   22.684941
H    22.131544   37.632150   16.398138
H    23.522844   37.579111   19.588613
H    22.085501   37.514161   22.681048
H    23.487247   37.469379   25.857114
C    24.047488   36.691875   16.344131
C    24.075407   36.635369   19.558911
H    24.598218   37.635056   16.405171
C    25.438591   36.633836   19.569109
C    26.192061   35.452153   16.318050
C    26.193269   35.411189   19.541521
H    26.736838   36.399952   16.382403
C    27.586268   35.391054   19.560763
H    25.988396   37.578078   19.608261
C    23.999937   36.571620   22.710678
C    24.037851   36.525923   25.915085
H    24.552495   37.515320   22.687696
C    25.401854   36.523917   25.921532
C    26.142260   35.332239   22.725481
C    26.156489   35.301099   25.967391
H    26.688107   36.281028   22.702931
C    27.550125   35.281147   25.954413
H    25.953093   37.466817   25.869632
H    30.279392   35.100409   19.602232
H    30.243942   34.989089   25.905725
H    28.134410   36.338648   19.601792
H    28.097801   36.228634   25.905809
C    30.478653   32.977349   16.316907
C    30.446644   32.955357   19.541060
H    31.026112   33.923397   16.381369
C    31.882800   32.913070   19.568067
C    30.427284   32.859065   22.723810
C    30.411625   32.843760   25.967127
H    30.975328   33.806674   22.700796
C    31.848076   32.801872   25.920755
C    28.335215   34.214397   16.317188
C    28.319246   34.181827   19.538298
C    29.733155   34.151747   19.560794
C    28.284757   34.095700   22.727151
C    28.283373   34.071332   25.980204
C    29.697749   34.040757   25.954353
C    32.625255   31.741218   16.340661
C    32.565337   31.733292   19.556689
H    33.165836   32.690512   16.401396
H    33.658464   31.727170   19.585872
H    34.398438   30.553315   16.391705
H    32.424269   33.862212   19.607741
C    32.572210   31.624262   22.705114
C    32.531948   31.621827   25.913529
H    33.112688   32.575139   22.681646
H    33.624427   31.616918   25.854958
H    34.345761   30.438496   22.670320
H    32.387679   33.751598   25.868995
H    33.622498   26.669096   25.852986
H    19.204245   18.346713   25.840040
H    19.203441   34.993301   25.854956
H    14.417611   26.722372   22.680640
H    28.830999   35.043381   22.703001
H    33.656829   26.785135   19.544767
H    28.830523   18.400481   22.676504
H    19.244191   18.463829   19.522911
H    19.245537   35.106390   19.549186
H    28.880588   35.160078   16.389755
H    14.463467   26.837648   16.377638
H    28.881126   18.512313   16.373232
