608
592nano.out 0 0 0
C 24.059 26.8278 16.2839
C 24.058 26.785 19.4968
C 24.7653 28.0648 16.2604
C 25.4812 26.7802 19.4945
C 26.2017 25.6037 16.2765
C 26.1899 25.5437 19.481
C 26.9087 26.8395 16.2547
C 27.6137 25.5414 19.4596
C 24.047 29.2937 16.2182
C 24.0633 29.2519 19.5
C 24.7546 30.5305 16.1409
C 25.4864 29.247 19.5033
C 26.1918 28.0689 16.2427
C 26.1938 28.0119 19.4959
C 26.8987 29.3043 16.1715
C 27.6194 28.0073 19.4874
C 24.0372 26.7035 22.7516
C 24.0074 26.6669 25.954
C 24.7516 27.9361 22.7609
C 25.4321 26.673 25.9741
C 26.1703 25.475 22.7387
C 26.15 25.4416 25.991
C 26.8849 26.7067 22.7464
C 27.5759 25.4495 26.0613
C 24.042 29.1695 22.7717
C 23.9982 29.1364 25.9901
C 24.7562 30.4024 22.7889
C 25.4213 29.1419 26.0128
C 26.1751 27.9383 22.7645
C 26.1381 27.9121 26.007
C 26.8891 29.1719 22.7856
C 27.5612 27.9212 26.0744
C 30.4798 25.6187 16.1793
C 30.458 25.5331 19.3987
C 31.1868 26.85 16.1392
C 31.8971 25.5331 19.36
C 30.4466 25.4833 22.6175
C 30.4147 25.4701 26.3025
C 31.1619 26.7127 22.5947
C 31.8568 25.4794 26.4207
C 28.3344 26.8445 16.2186
C 28.3264 26.773 19.4619
C 29.0411 28.0774 16.1565
C 29.7524 26.7693 19.4328
C 28.311 26.7106 22.7221
C 28.2772 26.6903 26.1169
C 29.0216 27.9428 22.7321
C 29.6951 26.7038 26.2515
C 30.4894 23.1622 16.1822
C 30.4546 23.0696 19.3694
C 31.1949 24.389 16.167
C 31.8907 23.0777 19.3393
C 30.4493 23.0178 22.5717
C 30.4296 22.9925 26.3587
C 31.1621 24.2478 22.5623
C 31.8598 23.011 26.5159
C 28.3437 24.3836 16.2313
C 28.3214 24.3079 19.4289
C 29.0509 25.6148 16.2142
C 29.7477 24.306 19.4008
C 28.3051 24.2471 22.6715
C 28.2927 24.22 26.1205
C 29.023 25.4805 22.6759
C 29.716 24.2326 26.2457
C 30.461 30.5276 15.8962
C 30.4759 30.4626 19.5852
C 31.1645 31.7719 15.7139
C 31.9217 30.4421 19.577
C 30.4487 30.4109 22.8024
C 30.3911 30.4156 26.2324
C 31.1581 31.6565 22.8675
C 31.823 30.4168 26.306
C 24.0232 34.2239 15.8808
C 24.0811 34.1899 19.5381
C 24.7405 35.4625 15.8343
C 25.4987 34.1887 19.565
C 26.1644 32.992 15.8815
C 26.214 32.9454 19.5831
C 26.8824 34.2431 15.7227
C 27.6409 32.9402 19.6356
C 24.0387 34.1007 22.7187
C 23.9753 34.0599 26.356
C 24.7718 35.3402 22.6056
C 25.3966 34.0669 26.3632
C 26.1803 32.8693 22.7983
C 26.1192 32.842 26.2241
C 26.9071 34.1158 22.795
C 27.5395 32.8553 26.2116
C 28.3173 31.7642 15.9178
C 28.3427 31.703 19.6048
C 29.0303 33.0131 15.7857
C 29.7719 31.6954 19.6473
C 28.3147 31.6379 22.8512
C 28.2548 31.6301 26.1543
C 29.0323 32.8858 22.8908
C 29.6787 31.6375 26.1854
C 30.4705 28.0765 16.1099
C 30.4665 27.9995 19.4492
C 31.1777 29.3066 15.9959
C 31.9099 27.9913 19.4204
C 30.4483 27.9457 22.667
C 30.3971 27.9467 26.3231
C 31.1603 29.1905 22.6988
C 31.8352 27.9537 26.4911
C 24.0361 31.7558 16.0575
C 24.07 31.718 19.5206
C 24.7435 32.9914 15.9446
C 25.4954 31.7124 19.5322
C 26.1813 30.534 16.1116
C 26.2024 30.4794 19.5233
C 26.8895 31.7653 15.9784
C 27.627 30.4741 19.5434
C 24.0449 31.6348 22.791
C 23.9862 31.6026 26.1127
C 24.7609 32.868 22.7711
C 25.4097 31.6089 26.1282
C 26.1778 30.4035 22.8007
C 26.1275 30.3801 26.0685
C 26.8919 31.6381 22.8244
C 27.5484 30.3891 26.1034
C 28.3234 29.3058 16.1182
C 28.3338 29.2368 19.5118
C 29.0299 30.5392 15.9847
C 29.7598 29.2288 19.5077
C 28.311 29.1742 22.781
C 28.2643 29.1593 26.119
C 29.0244 30.4101 22.8182
C 29.6881 29.1714 26.2218
H 14.454 21.8418 16.0462
H 14.9494 20.9675 19.2915
H 14.4166 21.7793 22.3573
H 14.9351 20.8041 26.4795
H 22.139 16.031 15.5793
C 22.6847 16.9776 15.6417
H 23.5073 15.9833 19.7044
H 22.1103 15.8809 22.7627
C 22.65 16.8354 22.7541
H 23.5358 15.8676 26.0993
H 15.6903 19.7146 15.7604
C 16.2253 20.6674 15.8236
H 17.0689 19.7307 19.5279
H 17.8355 18.4976 15.5196
C 18.3814 19.4422 15.6124
H 15.6434 19.6268 22.4452
C 16.186 20.5754 22.4918
H 17.0752 19.5637 26.5703
H 17.7665 18.37 22.5021
C 18.328 19.3086 22.5563
H 19.9896 17.2645 15.4582
C 20.5295 18.209 15.5709
H 21.3649 17.2287 19.7125
H 19.9494 17.1161 22.4171
C 20.4893 18.0621 22.5249
H 21.412 17.0871 26.4966
H 24.6213 16.0385 15.7017
H 24.5792 15.9127 22.9394
H 13.7201 25.5816 19.2694
C 14.8154 25.5804 19.3009
H 13.6738 25.4329 26.6366
C 14.7654 25.4349 26.5512
H 13.7149 23.114 19.2173
H 14.4434 24.3045 16.1486
C 14.8086 23.105 19.2737
H 13.6816 22.952 26.525
H 14.4127 24.2559 22.4075
C 14.7746 22.9513 26.5013
H 13.7309 30.5184 19.5164
H 14.4012 31.7086 15.78
C 14.8255 30.5196 19.5387
H 13.6694 30.3853 26.3969
H 14.4359 31.6696 22.8599
C 14.7615 30.3952 26.3358
H 13.724 28.0547 19.3523
H 14.4106 29.2353 15.9868
C 14.8195 28.05 19.3686
H 13.6759 27.9152 26.5935
H 14.4317 29.2207 22.5655
C 14.767 27.9142 26.5094
C 15.5457 21.8427 15.979
C 15.4886 21.9192 19.3127
C 16.2232 23.1043 16.0504
C 16.9189 21.8778 19.3984
C 17.6586 20.6401 15.7489
C 17.6266 20.6734 19.4972
C 18.3685 21.8886 15.894
C 19.0439 20.6294 19.6039
C 15.5373 24.3132 16.1241
C 15.4941 24.3617 19.3079
C 16.2101 25.5558 16.1389
C 16.9311 24.3475 19.36
C 17.6588 23.1052 16.0333
C 17.6347 23.1195 19.4047
C 18.3658 24.3394 16.1258
C 19.0632 23.1054 19.4609
C 15.5058 21.7701 22.4491
C 15.4752 21.754 26.4758
C 16.1886 23.0276 22.4717
C 16.9004 21.717 26.4446
C 17.6102 20.5286 22.5378
C 17.6297 20.5038 26.4776
C 18.3246 21.778 22.6076
C 19.0383 20.4772 26.475
C 15.502 24.2566 22.5126
C 15.4513 24.2107 26.4952
C 16.1842 25.4921 22.5636
C 16.8943 24.1979 26.3886
C 17.6216 23.0129 22.5947
C 17.6091 22.9661 26.3682
C 18.3358 24.2504 22.6608
C 19.0413 22.9597 26.2661
C 21.9444 20.6646 15.9131
C 21.9102 20.6237 19.5352
C 22.6509 21.8907 16.0763
C 23.3331 20.6176 19.5362
C 21.898 20.5278 22.7187
C 21.9175 20.4975 26.2632
C 22.6076 21.7644 22.7658
C 23.3309 20.497 26.1525
C 19.8053 21.887 15.9239
C 19.7705 21.8746 19.5263
C 20.5138 23.1177 16.091
C 21.2005 21.8589 19.515
C 19.7612 21.7694 22.677
C 19.7582 21.7307 26.3177
C 20.4736 23.005 22.7384
C 21.184 21.7259 26.2093
C 21.9318 18.1917 15.6592
C 21.9116 18.1708 19.6193
C 22.6607 19.4326 15.8081
C 23.32 18.1474 19.7002
C 21.9042 18.0477 22.6391
C 21.9451 18.0438 26.3779
C 22.6189 19.2897 22.7266
C 23.3472 18.0243 26.2202
C 19.8057 19.4092 15.6309
C 19.7701 19.4139 19.5798
C 20.5231 20.6603 15.8112
C 21.1809 19.3786 19.5664
C 19.7471 19.2707 22.5749
C 19.7826 19.2656 26.3951
C 20.4738 20.528 22.662
C 21.212 19.2507 26.4154
C 21.9272 25.5834 16.257
C 21.9211 25.5589 19.4838
C 22.6338 26.8215 16.2752
C 23.3454 25.5522 19.4942
C 21.9002 25.4706 22.7529
C 21.8753 25.4268 25.9848
C 22.6137 26.7027 22.7496
C 23.2999 25.4298 25.9576
C 15.5051 29.2396 15.995
C 15.504 29.2627 19.4502
C 16.1806 30.4576 15.8895
C 16.9413 29.27 19.4766
C 17.6385 28.0245 16.1174
C 17.6511 28.0362 19.4247
C 18.345 29.2533 16.068
C 19.0786 28.0344 19.4527
C 15.5253 29.2124 22.6244
C 15.4494 29.1388 26.3944
C 16.2114 30.4238 22.7605
C 16.8855 29.1435 26.2655
C 17.6401 27.9599 22.6414
C 17.5998 27.8979 26.242
C 18.3495 29.1863 22.7297
C 19.0233 27.8951 26.1039
C 19.7825 26.8076 16.2156
C 19.7873 26.8006 19.448
C 20.4884 28.0428 16.2101
C 21.2123 26.7949 19.4737
C 19.7671 26.7097 22.7207
C 19.7345 26.6606 26.0719
C 20.4817 27.9418 22.7428
C 21.1589 26.6599 25.9964
C 21.9362 23.1194 16.1485
C 21.9163 23.0909 19.494
C 22.6437 24.3553 16.2364
C 23.3405 23.0833 19.487
C 21.8963 23.0002 22.767
C 21.8871 22.9593 26.0686
C 22.6093 24.2358 22.7663
C 23.3134 22.9618 26.007
C 15.5223 26.7787 16.1236
C 15.4976 26.8139 19.3394
C 16.1939 28.0103 16.0821
C 16.9376 26.8099 19.375
C 17.651 25.5618 16.1578
C 17.6454 25.578 19.3836
C 18.3559 26.7986 16.175
C 19.0731 25.5711 19.4258
C 15.5089 26.7309 22.5224
C 15.4466 26.6639 26.4982
C 16.1997 27.9667 22.5237
C 16.8923 26.6632 26.3489
C 17.6286 25.483 22.6332
C 17.6069 25.4317 26.2874
C 18.3428 26.7151 22.6684
C 19.0262 25.4276 26.1553
C 19.7952 24.3446 16.1578
C 19.7822 24.3375 19.4521
C 20.5006 25.5778 16.2251
C 21.2068 24.3276 19.4803
C 19.7619 24.2428 22.7218
C 19.7448 24.1932 26.1425
C 20.4747 25.4729 22.7375
C 21.167 24.1916 26.0496
C 24.0722 16.9841 15.6997
C 24.0669 16.9253 19.6877
C 24.8194 18.1997 15.7594
C 25.4452 16.9164 19.6711
H 25.9807 15.9605 19.6633
H 26.7815 17.285 15.6302
C 24.0859 19.4368 15.8496
C 24.0535 19.3812 19.6081
C 24.7999 20.6761 15.986
C 25.4754 19.3712 19.5994
C 26.2318 18.2296 15.7485
C 26.2012 18.1288 19.6843
C 26.9596 19.4496 15.845
C 27.6188 18.1478 19.6858
C 24.0219 16.8502 22.8426
C 24.089 16.8099 26.1419
C 24.7655 18.0673 22.8039
C 25.461 16.8071 26.1296
H 26.0182 15.864 26.1096
H 26.7126 17.1441 22.7645
C 24.0364 19.3005 22.7784
C 24.0554 19.2616 26.154
C 24.7503 20.5356 22.7751
C 25.4729 19.263 26.1218
C 26.1648 18.0911 22.7799
C 26.2007 18.0261 26.1762
C 26.8898 19.2924 22.7162
C 27.5928 18.0427 26.3142
H 28.1657 17.1999 19.7389
H 28.136 17.0951 26.3902
C 30.4961 20.72 16.1605
C 30.46 20.5978 19.3586
C 31.2058 21.9202 16.1639
C 31.8924 20.635 19.3207
C 30.4421 20.5577 22.5155
C 30.4408 20.5067 26.5022
C 31.1615 21.7642 22.5364
C 31.8693 20.5576 26.5666
C 24.0689 24.3619 16.2616
C 24.0541 24.3172 19.4884
C 24.7761 25.5966 16.2845
C 25.4776 24.3124 19.4751
C 26.2104 23.1402 16.217
C 26.1871 23.0759 19.4566
C 26.9185 24.3757 16.2554
C 27.6093 23.0758 19.4302
C 24.032 24.2368 22.7586
C 24.0194 24.1986 25.9649
C 24.7463 25.47 22.7488
C 25.4445 24.2038 25.9794
C 26.167 23.0088 22.7202
C 26.1649 22.9709 26.0206
C 26.8815 24.2414 22.7105
C 27.5868 22.9796 26.0995
C 28.3607 21.9223 16.1575
C 28.3231 21.8394 19.4208
C 29.0634 23.1527 16.2027
C 29.7483 21.8447 19.3789
C 28.3032 21.7825 22.6165
C 28.2999 21.7455 26.2214
C 29.0148 23.0119 22.6244
C 29.7283 21.7549 26.3552
H 30.3158 18.4535 19.3978
H 31.048 19.7745 16.1566
H 30.2733 18.3507 26.6289
H 30.9938 19.6153 22.4244
C 24.0791 21.8975 16.1133
C 24.0501 21.8483 19.4944
C 24.7861 23.1313 16.215
C 25.4765 21.842 19.4852
C 26.2233 20.6871 15.9887
C 26.1919 20.6078 19.5277
C 26.9315 21.9119 16.131
C 27.6165 20.6066 19.4867
C 24.0335 21.7697 22.7769
C 24.0359 21.7335 26.0418
C 24.7426 23.0023 22.7598
C 25.4599 21.7348 26.0329
C 26.1679 20.5384 22.7385
C 26.1763 20.4998 26.106
C 26.8797 21.7743 22.6965
C 27.5919 20.5043 26.2325
C 28.3617 19.4762 16.0047
C 28.3467 19.3588 19.5293
C 29.0869 20.6848 16.1197
C 29.7547 19.3952 19.416
C 28.2984 19.3206 22.5986
C 28.3107 19.2507 26.3822
C 29.0214 20.5262 22.5092
C 29.7257 19.292 26.519
H 32.4289 19.681 19.3087
H 33.1774 21.0044 16.1316
H 32.4173 19.6119 26.6222
H 33.1362 20.8568 22.5103
H 14.9676 32.6466 19.7844
H 14.9032 32.5194 26.1522
C 15.4952 31.716 15.7777
C 15.5086 31.7007 19.6837
C 16.1787 32.9121 15.6922
C 16.9461 31.7384 19.7214
C 17.6279 30.4823 15.9282
C 17.6527 30.4917 19.5781
C 18.3316 31.7154 15.8482
C 19.0835 30.5003 19.5465
H 15.629 33.8553 15.6195
H 17.1176 33.8888 19.8128
C 17.616 32.9659 15.7157
C 17.6648 32.9461 19.7124
C 18.3213 34.1731 15.664
C 19.078 32.9788 19.6558
C 15.5298 31.6789 22.8597
C 15.4448 31.571 26.2037
C 16.2158 32.8591 22.9337
C 16.8759 31.6107 26.1437
C 17.6447 30.427 22.7838
C 17.5907 30.3671 26.1511
C 18.3546 31.6485 22.8549
C 19.0129 30.3667 26.0805
H 15.6762 33.8092 22.9996
H 17.0339 33.7548 26.0823
C 17.6468 32.8961 22.9168
C 17.5842 32.8092 26.0968
C 18.3625 34.0946 22.9366
C 18.9957 32.8422 26.1037
C 21.9025 30.5153 16.1201
C 21.9297 30.4926 19.5136
C 22.6092 31.7472 16.0448
C 23.3543 30.4895 19.5078
C 21.9097 30.4058 22.7907
C 21.8587 30.366 26.0256
C 22.6225 31.6371 22.8008
C 23.2803 30.3688 26.0313
C 19.7609 31.7288 15.9289
C 19.7933 31.7277 19.5886
C 20.4625 32.9648 15.8449
C 21.2197 31.7275 19.5607
C 19.778 31.6467 22.8419
C 19.7179 31.5963 26.0752
C 20.4893 32.8754 22.862
C 21.1408 31.5994 26.0751
C 21.9158 28.0509 16.2454
C 21.9252 28.0256 19.4849
C 22.6215 29.2863 16.209
C 23.3497 28.0209 19.4946
C 21.9056 27.9387 22.7524
C 21.866 27.8956 25.975
C 22.6194 29.1702 22.7682
C 23.2909 27.9001 25.9627
C 19.7711 29.2677 16.1262
C 19.7928 29.2636 19.4906
C 20.4771 30.5054 16.0679
C 21.2161 29.2615 19.4922
C 19.7758 29.1787 22.7618
C 19.7294 29.1296 26.0498
C 20.4881 30.4092 22.7991
C 21.1506 29.1301 26.0026
C 21.8741 35.4586 15.774
C 21.9625 35.4162 19.6034
C 22.6188 36.679 15.8099
C 23.3628 35.4281 19.5286
C 21.8945 35.3452 22.8042
C 21.8404 35.282 26.3646
C 22.6466 36.5635 22.7339
C 23.2311 35.299 26.4619
H 19.9152 36.3764 15.665
H 21.4232 36.3684 19.6418
H 19.9582 36.2796 22.8944
H 21.2906 36.2275 26.4117
C 21.8897 32.9749 15.9113
C 21.9413 32.9573 19.5955
C 22.6046 34.2192 15.8524
C 23.3611 32.9564 19.546
C 21.9093 32.8719 22.8248
C 21.8465 32.8308 26.1604
C 22.6234 34.1047 22.7843
C 23.2641 32.8296 26.2017
H 17.7665 35.1124 15.5778
H 17.8151 35.0426 22.9734
C 19.7322 34.2145 15.7181
C 19.8083 34.185 19.6813
C 20.4626 35.4303 15.7149
C 21.222 34.2097 19.6924
C 19.7707 34.122 22.9002
C 19.7157 34.0483 26.1579
C 20.5031 35.3297 22.8756
C 21.1154 34.0748 26.2238
C 32.6405 21.9577 16.1373
C 32.573 21.8185 19.3171
C 33.3229 23.1403 16.1224
H 33.6654 21.8302 19.3042
C 32.6341 24.3988 16.1367
C 32.5715 24.2904 19.33
C 33.313 25.6163 16.1158
H 33.6657 24.2909 19.298
H 34.4174 23.1511 16.1076
C 32.5938 21.8065 22.5225
C 32.5464 21.7533 26.5646
C 33.2875 23.002 22.5102
H 33.6391 21.7633 26.6211
C 32.6075 24.263 22.5094
C 32.543 24.2443 26.4747
C 33.293 25.4846 22.4975
H 33.6326 24.2455 26.5788
H 34.3814 23.0016 22.4926
C 32.6162 29.3 15.9698
C 32.5966 29.2248 19.4745
C 33.2913 30.5564 15.8593
H 33.691 29.2209 19.4615
H 34.4012 28.0916 16.0256
C 32.6015 29.1864 22.6424
C 32.5096 29.201 26.4282
C 33.2819 30.4448 22.7397
H 33.6032 29.2109 26.4964
H 34.3829 27.9699 22.5258
C 32.6279 26.8522 16.1052
C 32.5818 26.7596 19.3625
C 33.3055 28.0873 16.0419
H 34.4093 25.6212 16.0946
C 32.6115 26.7145 22.5237
C 32.5279 26.7189 26.4875
C 33.289 27.9634 22.5571
H 34.3865 25.482 22.4526
H 22.0651 37.6228 15.802
H 23.5616 37.5868 19.4311
H 22.0967 37.5098 22.7515
H 23.4301 37.4607 26.6698
C 23.9897 36.6784 15.8425
C 24.1136 36.6431 19.4732
H 24.5397 37.6241 15.8633
C 25.4836 36.647 19.4983
C 26.1437 35.449 15.7762
C 26.2298 35.4303 19.5835
H 26.6829 36.401 15.729
C 27.6392 35.4064 19.6456
H 26.0355 37.5918 19.4737
C 24.0128 36.5662 22.6176
C 23.9844 36.5203 26.6003
H 24.5624 37.5089 22.5394
C 25.3622 36.5268 26.6028
C 26.1697 35.3249 22.6938
C 26.1273 35.3126 26.4728
H 26.7154 36.2725 22.6448
C 27.5219 35.3061 26.4041
H 25.9068 37.4724 26.6802
H 30.335 35.0973 19.7862
H 30.2081 35.037 26.271
H 28.1856 36.3544 19.6547
H 28.0633 36.256 26.4656
C 30.4442 32.9794 15.716
C 30.4864 32.9491 19.7247
H 30.9916 33.9212 15.6092
C 31.9231 32.8975 19.7275
C 30.4453 32.8519 22.9201
C 30.384 32.8893 26.2031
H 30.9935 33.7981 22.964
C 31.8156 32.8581 26.2104
C 28.2995 34.218 15.7301
C 28.3707 34.1928 19.6968
C 29.7808 34.1551 19.7377
C 28.3075 34.0906 22.8664
C 28.2559 34.1057 26.2797
C 29.6642 34.0865 26.2422
C 32.6026 31.7365 15.7282
C 32.6061 31.7027 19.6581
H 33.1415 32.6842 15.6327
H 33.6994 31.6933 19.6522
H 34.3859 30.5561 15.8701
H 32.4718 33.842 19.7803
C 32.5909 31.6185 22.8525
C 32.5044 31.6763 26.2585
H 33.1272 32.5695 22.9221
H 33.599 31.6721 26.2733
H 34.3763 30.4421 22.7165
H 32.3532 33.8118 26.1893
H 33.6176 26.7255 26.5914
H 19.2479 18.3193 26.5444
H 19.1646 34.9935 26.1776
H 14.4184 26.7357 22.4185
H 28.856 35.0372 22.8731
H 33.6766 26.7552 19.3344
H 28.8422 18.3748 22.5064
H 19.216 18.474 19.6569
H 19.2648 35.1312 19.7657
H 28.8417 35.1638 15.6328
H 14.4282 26.7711 16.1196
H 28.9175 18.5307 15.9712
Li 31.1946 31.7994 17.8021
Li 16.0693 22.9959 24.5733
Li 23.233 18.0729 17.6033
Li 24.6614 35.4651 24.6554
Li 31.9384 23.0617 24.4047
Li 16.8695 31.849 17.6518
Li 27.0526 34.2493 17.7794
Li 21.0561 34.3619 17.6399
Li 32.0166 27.8622 24.4451
Li 15.9327 27.8394 24.5568
Li 18.8463 20.4551 24.426
Li 29.2061 20.292 24.547
Li 19.0329 20.3911 17.5747
Li 27.2064 18.4761 17.6736
Li 20.7436 18.3122 24.5701
Li 26.9837 18.2537 24.4705
