650
592nano.out 0 0 0
C 24.0602 26.8386 15.9095
C 24.0584 26.7815 19.2022
C 24.7735 28.081 15.9179
C 25.4953 26.7906 19.2064
C 26.2085 25.6093 15.8647
C 26.2178 25.5415 19.1997
C 26.9231 26.8492 15.8864
C 27.6588 25.5523 19.1518
C 24.059 29.319 15.8541
C 24.0544 29.2707 19.1907
C 24.7688 30.5578 15.7873
C 25.4924 29.2773 19.1877
C 26.2028 28.0863 15.9085
C 26.2076 28.032 19.2063
C 26.913 29.3248 15.8355
C 27.6481 28.0412 19.2153
C 24.044 26.7106 23.1211
C 24.0159 26.6779 26.3043
C 24.7564 27.9507 23.1145
C 25.4465 26.6756 26.3202
C 26.2009 25.4666 23.092
C 26.1571 25.4362 26.363
C 26.9149 26.7117 23.1021
C 27.5837 25.4344 26.4561
C 24.0326 29.1946 23.1281
C 24.0211 29.1538 26.362
C 24.7409 30.4368 23.0928
C 25.4503 29.1524 26.3712
C 26.1887 27.9523 23.1122
C 26.1621 27.913 26.3552
C 26.9006 29.1918 23.1332
C 27.5876 27.9117 26.4406
C 30.4927 25.6241 15.5643
C 30.5111 25.5571 19.2517
C 31.205 26.8652 15.5481
C 31.9504 25.5609 19.2838
C 30.5183 25.4754 23.0867
C 30.4137 25.4295 26.7859
C 31.2242 26.7312 23.1128
C 31.8472 25.4295 26.966
C 28.3494 26.8545 15.7928
C 28.3649 26.7965 19.2127
C 29.0566 28.0938 15.7285
C 29.7999 26.801 19.2515
C 28.3573 26.7186 23.0935
C 28.2965 26.671 26.5032
C 29.0648 27.9649 23.0598
C 29.7167 26.668 26.6762
C 30.4935 23.1578 15.3774
C 30.5459 23.0702 19.1836
C 31.2082 24.3874 15.4201
C 31.9966 23.0707 19.1776
C 30.5055 22.9807 23.0333
C 30.4229 22.9567 26.8622
C 31.231 24.2323 23.0685
C 31.8502 22.9544 27.0325
C 28.3606 24.3835 15.6638
C 28.3829 24.2959 19.1985
C 29.0664 25.6194 15.697
C 29.8149 24.3044 19.2178
C 28.3602 24.2278 23.0572
C 28.2908 24.1948 26.5649
C 29.0771 25.4723 23.0788
C 29.7112 24.1973 26.7245
C 30.4724 30.5695 15.4602
C 30.5126 30.5178 19.2248
C 31.1863 31.8099 15.3072
C 31.9658 30.5203 19.1648
C 30.4856 30.4559 22.9729
C 30.4429 30.3781 26.7625
C 31.2166 31.7169 22.9451
C 31.8819 30.3685 26.898
C 24.049 34.2542 15.3482
C 24.0382 34.2415 19.1321
C 24.7634 35.4946 15.1821
C 25.4737 34.2455 19.1194
C 26.1858 33.0221 15.4776
C 26.1984 33.0095 19.1689
C 26.8973 34.2738 15.3045
C 27.6492 33.0068 19.2395
C 24.0234 34.1574 22.998
C 24.0391 34.0887 26.7959
C 24.7474 35.4213 22.9495
C 25.4622 34.0889 26.8084
C 26.1673 32.9118 23.0195
C 26.1711 32.854 26.6909
C 26.8817 34.1658 23.066
C 27.5901 32.8571 26.7534
C 28.3291 31.7907 15.5669
C 28.3723 31.7661 19.2086
C 29.0469 33.039 15.428
C 29.8007 31.769 19.221
C 28.3176 31.6709 22.9858
C 28.3028 31.6217 26.659
C 29.0312 32.9129 22.9723
C 29.74 31.6178 26.7341
C 30.4824 28.0999 15.5921
C 30.5041 28.038 19.2935
C 31.191 29.3437 15.4737
C 31.9464 28.0445 19.3663
C 30.5033 27.9739 23.042
C 30.4222 27.9064 26.7759
C 31.2118 29.2175 23.0092
C 31.8592 27.9102 26.9759
C 24.051 31.7926 15.663
C 24.056 31.7602 19.1707
C 24.7624 33.0239 15.5084
C 25.4784 31.761 19.1591
C 26.196 30.5597 15.7743
C 26.2029 30.5265 19.1491
C 26.9065 31.7958 15.627
C 27.6547 30.5317 19.1523
C 24.0179 31.6794 23.0638
C 24.0301 31.6225 26.5404
C 24.7378 32.9188 23.0232
C 25.4558 31.6234 26.5455
C 26.1724 30.436 23.0878
C 26.1657 30.3874 26.4606
C 26.8871 31.6785 23.0174
C 27.5923 30.386 26.5231
C 28.3418 29.3271 15.7443
C 28.3636 29.2819 19.1946
C 29.0455 30.5643 15.6078
C 29.8012 29.2793 19.2385
C 28.3459 29.196 23.0656
C 28.3017 29.1489 26.5206
C 29.0527 30.4414 23.0013
C 29.7234 29.1431 26.6705
H 14.4309 21.8881 14.9927
H 14.914 20.8215 19.1081
H 14.3519 21.723 22.9689
H 14.9086 20.8203 26.9174
H 22.1455 15.9886 15.2524
C 22.682 16.941 15.2916
H 23.5599 15.8795 19.1128
H 22.1069 15.8064 23.0632
C 22.6454 16.7568 23.0628
H 23.4586 15.8685 27.0446
H 15.6588 19.7187 15.1721
C 16.2056 20.6642 15.2218
H 17.0947 19.5853 19.1875
H 17.8012 18.4592 15.3385
C 18.352 19.4019 15.4077
H 15.6029 19.5489 23.0541
C 16.153 20.4915 23.011
H 17.0561 19.5784 26.9472
H 17.7575 18.2938 23.1133
C 18.3054 19.2388 23.0714
H 19.9611 17.2206 15.0984
C 20.4995 18.1606 15.2577
H 21.3698 17.1301 19.2916
H 19.9156 17.0456 23.0501
C 20.4617 17.9918 23.0556
H 21.3121 17.1145 27.0108
H 24.6375 16.0091 15.2789
H 24.6184 15.8212 23.0039
H 13.6127 25.4945 19.0561
C 14.7053 25.5007 19.0824
H 13.6584 25.4507 27.0329
C 14.7487 25.4524 26.9416
H 13.6489 22.9782 19.0072
H 14.4301 24.3738 15.0641
C 14.7415 22.993 19.042
H 13.6595 22.9751 26.9636
H 14.3516 24.2305 22.9712
C 14.7518 22.9733 26.9141
H 13.6284 30.5306 19.1692
H 14.4135 31.7527 15.0497
C 14.7214 30.5198 19.1917
H 13.6838 30.4033 27.1612
H 14.3155 31.6372 23.2523
C 14.7747 30.4025 27.0846
H 13.6049 28.0107 19.1302
H 14.4182 29.2693 15.1359
C 14.6976 28.0112 19.156
H 13.6606 27.926 27.0517
H 14.3449 29.1228 23.0648
C 14.7511 27.9223 26.9708
C 15.5181 21.8813 15.1053
C 15.453 21.7733 19.1085
C 16.1991 23.1233 15.1831
C 16.8773 21.7528 19.1289
C 17.6178 20.6218 15.3511
C 17.6314 20.54 19.2009
C 18.3425 21.8773 15.4161
C 19.0393 20.5377 19.3088
C 15.5195 24.3669 15.1706
C 15.3979 24.2358 19.0673
C 16.2073 25.5858 15.2173
C 16.8681 24.2503 19.1067
C 17.6362 23.1186 15.3572
C 17.5983 23.0122 19.1317
C 18.3514 24.349 15.4587
C 19.0328 23.019 19.1856
C 15.4445 21.7181 22.9843
C 15.449 21.7706 26.8916
C 16.1243 22.9608 22.9148
C 16.8701 21.738 26.8435
C 17.5655 20.4529 22.9975
C 17.6002 20.5257 26.8799
C 18.3022 21.7227 22.9811
C 19.0023 20.5104 26.912
C 15.4453 24.2149 22.9726
C 15.4315 24.2288 26.8868
C 16.1516 25.4378 23.022
C 16.8738 24.2196 26.7725
C 17.5831 22.9658 22.9611
C 17.5843 22.9877 26.7598
C 18.3067 24.2037 22.999
C 19.0167 22.9859 26.6715
C 21.9229 20.6339 15.4467
C 21.9268 20.551 19.3122
C 22.634 21.8789 15.4777
C 23.3779 20.5398 19.3252
C 21.8974 20.4682 23.1228
C 21.8729 20.5158 26.7852
C 22.6158 21.7249 23.1959
C 23.2925 20.504 26.7117
C 19.7754 21.8701 15.4976
C 19.7612 21.7948 19.2628
C 20.4869 23.1127 15.5963
C 21.1953 21.7969 19.2984
C 19.7299 21.7214 23.0413
C 19.7279 21.7583 26.7549
C 20.4551 22.966 23.086
C 21.1541 21.7452 26.671
C 21.9276 18.144 15.307
C 21.9303 18.0648 19.1595
C 22.6481 19.3985 15.3875
C 23.3659 18.0285 19.2575
C 21.9 17.9525 23.0831
C 21.8633 18.0568 26.927
C 22.6268 19.2304 23.0993
C 23.2827 18.0278 26.9754
C 19.7665 19.3706 15.354
C 19.784 19.3238 19.2149
C 20.4947 20.6291 15.4541
C 21.2177 19.3106 19.2088
C 19.7151 19.2088 23.0624
C 19.7347 19.2951 26.8498
C 20.449 20.4789 23.0835
C 21.1468 19.2691 26.9443
C 21.9184 25.5911 15.7708
C 21.8978 25.5351 19.236
C 22.6335 26.8318 15.8273
C 23.343 25.5361 19.1775
C 21.8934 25.4554 23.135
C 21.8697 25.4448 26.3694
C 22.606 26.7062 23.1274
C 23.299 25.4411 26.3273
C 15.5074 29.2796 15.2426
C 15.38 29.2821 19.1947
C 16.185 30.5257 15.2446
C 16.8553 29.2717 19.2352
C 17.6447 28.0641 15.3956
C 17.5577 28.0251 19.2473
C 18.3491 29.305 15.4378
C 19.0072 28.014 19.3737
C 15.4389 29.1465 23.0671
C 15.4447 29.1533 26.9909
C 16.1023 30.4008 23.1247
C 16.8846 29.1583 26.8626
C 17.5971 27.9347 23.0416
C 17.5961 27.9161 26.7347
C 18.293 29.1834 23.076
C 19.0205 27.9191 26.5759
C 19.7873 26.8212 15.5584
C 19.726 26.7696 19.2637
C 20.5093 28.066 15.5473
C 21.1746 26.7639 19.2632
C 19.7442 26.7014 23.1073
C 19.7294 26.6854 26.4867
C 20.4499 27.9516 23.1109
C 21.1577 26.683 26.388
C 21.9173 23.1178 15.625
C 21.9071 23.0505 19.2994
C 22.631 24.3524 15.754
C 23.3634 23.0543 19.3297
C 21.8912 22.9606 23.1379
C 21.8675 22.9747 26.51
C 22.6107 24.2081 23.1287
C 23.2959 22.9686 26.4597
C 15.5177 26.8213 15.3332
C 15.3788 26.7579 19.1309
C 16.2005 28.0622 15.2548
C 16.8475 26.7609 19.1692
C 17.6491 25.5862 15.3854
C 17.57 25.5013 19.14
C 18.3512 26.8228 15.4627
C 19.0165 25.5093 19.14
C 15.4688 26.6794 22.9198
C 15.4301 26.6785 26.9194
C 16.1552 27.9239 23.0203
C 16.8797 26.6809 26.7809
C 17.6002 25.4479 22.9908
C 17.5902 25.4537 26.6856
C 18.31 26.6938 23.0313
C 19.0141 25.4517 26.5528
C 19.7768 24.3438 15.6003
C 19.7444 24.2749 19.1813
C 20.4939 25.5853 15.6614
C 21.1807 24.2787 19.2516
C 19.7454 24.1966 23.0842
C 19.727 24.2168 26.5414
C 20.4614 25.4559 23.1396
C 21.1546 24.2108 26.4549
C 24.084 16.9513 15.2894
C 24.1042 16.8264 19.1466
C 24.8135 18.1665 15.3101
C 25.5237 16.828 19.1121
H 26.0663 15.8841 19.028
H 26.7861 17.2664 15.2385
C 24.077 19.4098 15.373
C 24.0865 19.2898 19.2742
C 24.7872 20.6507 15.4345
C 25.5254 19.2987 19.2481
C 26.2306 18.2064 15.2936
C 26.2585 18.0366 19.1549
C 26.938 19.4183 15.266
C 27.6749 18.0792 19.0445
C 24.0659 16.7635 23.0035
C 24.0138 16.8087 26.9723
C 24.7967 17.9849 23.0498
C 25.3989 16.7951 26.8586
H 25.9397 15.8444 26.8483
H 26.7773 17.0938 22.8861
C 24.0663 19.2393 23.0721
C 24.0053 19.2633 26.8184
C 24.7737 20.4888 23.0549
C 25.425 19.2506 26.762
C 26.2157 18.0328 22.909
C 26.1468 17.9973 26.7968
C 26.9185 19.2595 22.8393
C 27.5634 18.0116 26.7183
H 28.2216 17.1386 18.9445
H 28.1039 17.0614 26.7355
C 30.4825 20.697 15.2887
C 30.5779 20.5495 19.0696
C 31.2104 21.9179 15.2145
C 31.9853 20.5932 19.0818
C 30.4858 20.5065 22.9677
C 30.4341 20.4682 26.9038
C 31.2329 21.7121 23.0447
C 31.8472 20.5075 27.0061
C 24.0633 24.3619 15.7911
C 24.0742 24.3 19.2597
C 24.7749 25.6009 15.8879
C 25.5066 24.2998 19.2634
C 26.2044 23.1367 15.5899
C 26.2343 23.035 19.3304
C 26.9257 24.3833 15.707
C 27.6706 23.0533 19.2506
C 24.0495 24.2141 23.117
C 24.0111 24.202 26.3667
C 24.7646 25.4614 23.1052
C 25.4403 24.1994 26.3813
C 26.197 22.9809 23.0421
C 26.1497 22.9618 26.4765
C 26.9193 24.2204 23.0641
C 27.5739 22.9623 26.5652
C 28.3516 21.9192 15.4105
C 28.4002 21.801 19.1809
C 29.0704 23.1518 15.4954
C 29.832 21.8168 19.1377
C 28.3443 21.7556 22.9646
C 28.2867 21.7237 26.6827
C 29.0765 22.9852 23.0098
C 29.7177 21.7227 26.823
H 30.3685 18.3845 18.9467
H 31.0288 19.7523 15.208
H 30.2643 18.3069 26.8395
H 31.0155 19.549 22.9742
C 24.065 21.8849 15.5183
C 24.099 21.7924 19.3413
C 24.7777 23.1291 15.6651
C 25.5267 21.794 19.3004
C 26.2102 20.6636 15.4037
C 26.2355 20.541 19.2518
C 26.9298 21.8973 15.4939
C 27.6684 20.553 19.1639
C 24.052 21.7281 23.1319
C 24.0084 21.7319 26.5544
C 24.7705 22.972 23.0898
C 25.4336 21.7281 26.5456
C 26.1971 20.5092 22.9532
C 26.1445 20.4893 26.6528
C 26.9142 21.7443 22.9843
C 27.5749 20.4831 26.6842
C 28.3528 19.4574 15.3389
C 28.4014 19.2876 19.0833
C 29.077 20.672 15.2569
C 29.8246 19.3282 19.0257
C 28.3326 19.2883 22.9069
C 28.3003 19.2184 26.7514
C 29.0637 20.5052 22.9407
C 29.7142 19.2508 26.802
H 32.5391 19.6534 19.0368
H 33.1659 21.0011 15.1151
H 32.394 19.561 27.0422
H 33.1946 20.7919 23.1879
H 14.89 32.7029 19.1386
H 14.9432 32.5466 27.1941
C 15.5021 31.7647 15.1513
C 15.4307 31.7529 19.1671
C 16.1877 32.9851 15.2219
C 16.8565 31.7737 19.2127
C 17.6258 30.5381 15.3805
C 17.5739 30.5191 19.2856
C 18.3293 31.7789 15.4204
C 19.0159 30.5083 19.3249
H 15.6373 33.9269 15.1549
H 17.0725 33.9463 19.2097
C 17.6035 33.035 15.3363
C 17.605 32.9903 19.1913
C 18.3324 34.2563 15.3851
C 19.0293 32.9913 19.2394
C 15.4039 31.6418 23.1794
C 15.4775 31.595 27.1041
C 16.1156 32.8849 23.114
C 16.8932 31.6235 27.0266
C 17.5639 30.4121 23.0863
C 17.6014 30.3853 26.8637
C 18.2785 31.6654 23.0889
C 19.0321 30.3869 26.714
H 15.5594 33.8251 23.1197
H 17.0914 33.7885 27.1125
C 17.5296 32.9325 23.0449
C 17.6227 32.8487 26.9155
C 18.2796 34.1571 22.9357
C 19.0374 32.8581 26.9095
C 21.9172 30.5521 15.673
C 21.8958 30.5093 19.2306
C 22.628 31.791 15.6323
C 23.3347 30.5144 19.1861
C 21.8709 30.4388 23.1257
C 21.882 30.3889 26.5026
C 22.5947 31.68 23.0813
C 23.3112 30.3892 26.4491
C 19.7671 31.7876 15.5088
C 19.7488 31.7379 19.2762
C 20.4802 33.0284 15.481
C 21.183 31.7509 19.2563
C 19.7116 31.6744 23.1147
C 19.7513 31.6113 26.7568
C 20.438 32.9211 23.1032
C 21.1736 31.6209 26.657
C 21.926 28.0714 15.7297
C 21.8903 28.0179 19.247
C 22.6312 29.3174 15.7696
C 23.3325 28.0202 19.2072
C 21.879 27.9498 23.1333
C 21.8744 27.9186 26.371
C 22.5939 29.1947 23.1736
C 23.3034 27.917 26.3262
C 19.7852 29.3167 15.5
C 19.7218 29.2656 19.3697
C 20.4894 30.5523 15.5731
C 21.1697 29.2628 19.2751
C 19.7292 29.1923 23.0997
C 19.7358 29.1539 26.5645
C 20.436 30.4311 23.1129
C 21.1629 29.1553 26.4587
C 21.9016 35.5104 15.2859
C 21.8907 35.4589 19.2316
C 22.6414 36.7142 15.2071
C 23.3087 35.5036 19.1018
C 21.8585 35.4326 23.0245
C 21.9007 35.3045 26.9304
C 22.5961 36.6376 23.0251
C 23.3161 35.3324 26.8992
H 19.9422 36.4416 15.3215
H 21.3316 36.3995 19.2492
H 19.89 36.3459 23.0771
H 21.3539 36.2488 27.0165
C 21.9118 33.0251 15.4996
C 21.9034 32.9826 19.2393
C 22.6273 34.2608 15.3661
C 23.3289 32.9972 19.179
C 21.8743 32.9227 23.0531
C 21.8992 32.8501 26.7529
C 22.5904 34.1617 23.0091
C 23.3199 32.8529 26.6822
H 17.7832 35.1991 15.3195
H 17.7379 35.1004 22.8241
C 19.7485 34.2886 15.3885
C 19.7661 34.2075 19.2326
C 20.4848 35.4935 15.3665
C 21.1817 34.235 19.3047
C 19.7098 34.1907 23.0435
C 19.7637 34.0759 26.8734
C 20.436 35.3982 23.0784
C 21.1878 34.0994 26.931
C 32.6266 21.9506 15.1917
C 32.6896 21.8309 19.1763
C 33.3281 23.1502 15.2637
H 33.7816 21.839 19.1584
C 32.6542 24.393 15.3404
C 32.666 24.3261 19.3448
C 33.3435 25.6321 15.416
H 33.7602 24.3509 19.3246
H 34.4216 23.1507 15.2402
C 32.6518 21.7369 23.1376
C 32.5309 21.7128 27.0733
C 33.3692 22.9774 23.176
H 33.6218 21.7213 27.1651
C 32.7023 24.2265 23.1109
C 32.546 24.1995 26.9652
C 33.3884 25.4935 23.0569
H 33.6237 24.2058 27.1751
H 34.4601 22.9663 23.231
C 32.6351 29.3471 15.3933
C 32.6454 29.2744 19.2814
C 33.3038 30.5957 15.3429
H 33.7401 29.2644 19.2677
H 34.4253 28.1259 15.3962
C 32.6772 29.2263 23.0942
C 32.5553 29.1239 26.9626
C 33.3475 30.4695 23.1171
H 33.6456 29.1158 27.0543
H 34.4516 27.9875 23.2427
C 32.6601 26.8702 15.4481
C 32.6355 26.8061 19.2819
C 33.3331 28.1151 15.4424
H 34.4357 25.6331 15.3659
C 32.6878 26.7437 23.1338
C 32.5421 26.6629 26.9595
C 33.3598 27.9812 23.19
H 34.4806 25.4999 22.9933
H 22.0935 37.6604 15.1785
H 23.4938 37.6646 19.1277
H 22.0544 37.5859 23.0474
H 23.5004 37.4882 27.0043
C 24.028 36.7078 15.1495
C 24.0419 36.721 19.139
H 24.5805 37.6489 15.0695
C 25.461 36.7231 19.1181
C 26.1804 35.4766 15.2609
C 26.1992 35.5248 19.1133
H 26.727 36.4205 15.1653
C 27.6337 35.489 19.1482
H 26.0037 37.6712 19.119
C 24.0104 36.6344 23.0048
C 24.0532 36.5457 26.9637
H 24.5588 37.5797 22.9817
C 25.4453 36.5473 26.9795
C 26.1704 35.3829 23.0119
C 26.1903 35.3324 26.93
H 26.7259 36.3263 23.0182
C 27.5945 35.3131 26.9521
H 25.994 37.4914 27.0339
H 30.3409 35.2152 19.0321
H 30.2839 35.0312 26.9175
H 28.1811 36.4355 19.125
H 28.1385 36.2591 27.0326
C 30.4545 33.0323 15.3982
C 30.5447 33.0285 19.1635
H 30.9951 33.981 15.2701
C 31.9543 32.9936 19.16
C 30.4579 32.9234 23.061
C 30.4615 32.8737 26.8301
H 30.9823 33.8833 23.1404
C 31.8862 32.8256 26.8753
C 28.3212 34.2575 15.3877
C 28.3708 34.2772 19.2038
C 29.8038 34.2706 19.1837
C 28.3023 34.1406 22.958
C 28.3166 34.1146 26.8857
C 29.7359 34.0873 26.8542
C 32.6008 31.7876 15.2927
C 32.6553 31.7649 19.1756
H 33.1337 32.7431 15.2427
H 33.7453 31.7608 19.1333
H 34.3971 30.6014 15.3324
H 32.5043 33.9384 19.1263
C 32.632 31.6951 23.0345
C 32.5703 31.6104 26.9336
H 33.1719 32.6451 23.0408
H 33.6617 31.5986 26.9891
H 34.4364 30.479 23.1998
H 32.4365 33.7695 26.9074
H 33.6209 26.66 27.1646
H 19.1875 18.35 26.9314
H 19.2241 35.0119 27.0685
H 14.3735 26.6825 22.9362
H 28.8557 35.0842 23.0438
H 33.7309 26.8045 19.295
H 28.883 18.3416 22.8921
H 19.246 18.3688 19.2957
H 19.2153 35.1539 19.254
H 28.8651 35.2 15.238
H 14.4282 26.8209 15.2203
H 28.9051 18.515 15.2736
Li 31.2322 31.8172 17.3555
Li 16.0209 22.9645 24.9957
Li 23.4353 18.0172 17.18
Li 24.7979 35.4854 25.0453
Li 31.8847 22.8363 24.9488
Li 16.5316 31.7461 17.1274
Li 27.1754 34.0621 17.3389
Li 21.3522 34.4815 17.2347
Li 31.8514 28.105 24.9271
Li 15.9423 27.9577 25.0609
Li 18.8232 20.5437 24.873
Li 29.2699 20.4669 24.9616
Li 19.0244 20.5788 17.2521
Li 26.7567 19.2607 17.314
Li 21.1099 19.1601 24.9094
Li 26.7678 19.087 24.8948
Li 28.9895 33.1104 24.9781
Li 21.2794 34.2396 24.8894
Li 16.0618 28.1768 17.3183
Li 16.0937 25.4359 17.2639
Li 16.7342 31.6364 24.9581
Li 32.0562 28.2648 17.3051
Li 29.0548 20.6146 17.2902
Li 32.0916 25.4223 17.2675
Li 24.7036 35.6538 17.2629
Li 31.4155 31.5795 25.0066
Li 16.5057 21.995 17.0872
Li 23.5375 17.7816 24.9068
Li 31.5132 21.8937 17.2835
Li 19.1482 32.9127 21.2452
Li 16.0207 25.3233 20.9527
Li 18.5682 33.7248 25.009
Li 26.8163 34.3104 21.004
Li 21.1236 19.1972 21.2403
Li 31.9998 25.6698 21.2818
Li 32.9271 25.4782 25.1167
Li 29.1859 20.4305 20.9273
Li 16.0494 28.0858 21.0039
Li 23.3382 25.4734 21.2682
Li 22.646 29.3155 21.0698
Li 18.9298 33.1382 17.23
Li 16.7823 21.6237 21.1543
Li 27.648 25.4889 21.2352
Li 29.6118 33.5263 21.0929
Li 23.252 35.5113 21.1614
Li 16.3438 31.4908 21.2238
Li 24.8681 17.8577 21.0067
Li 32.1266 30.4714 21.214
Li 32.1301 22.8163 21.2416
Li 27.0431 29.6943 21.0691
Li 19.4722 25.4919 21.1939
Li 22.9471 21.9071 17.5211
Li 19.6096 28.2052 17.4173
Li 22.8245 21.9042 21.1394
Li 20.6479 18.338 17.3382
Li 26.6002 23.4283 17.4783
Li 29.7539 34.2338 17.2037
Li 14.6823 25.2642 25.2642
