628
592nano.out 0 0 0
C 24.0898 26.8397 16.166
C 24.0273 26.733 19.2587
C 24.8033 28.0776 16.1608
C 25.4557 26.7321 19.3457
C 26.2365 25.6057 16.2008
C 26.1688 25.4932 19.4068
C 26.9541 26.8423 16.1913
C 27.5953 25.4859 19.4539
C 24.0853 29.3119 16.1176
C 24.0313 29.2191 19.2275
C 24.798 30.5487 16.0781
C 25.4585 29.2086 19.3348
C 26.2339 28.0791 16.1722
C 26.1702 27.9688 19.3739
C 26.9453 29.3142 16.1178
C 27.5955 27.9637 19.4681
C 24.0384 26.7361 22.9563
C 24.0404 26.6954 26.0399
C 24.7617 27.9808 23.009
C 25.4696 26.7048 26.0474
C 26.175 25.5027 22.8499
C 26.1893 25.471 26.0721
C 26.8936 26.7399 22.858
C 27.6171 25.4792 26.1383
C 24.0436 29.2277 22.9823
C 24.0268 29.1693 26.087
C 24.7555 30.4625 22.8942
C 25.4558 29.1812 26.083
C 26.1884 27.9784 22.9208
C 26.1758 27.9469 26.0659
C 26.898 29.2168 22.8604
C 27.6014 27.9571 26.1141
C 30.5203 25.6046 15.9156
C 30.4412 25.4784 19.5721
C 31.2391 26.8384 15.8888
C 31.8871 25.4771 19.6563
C 30.4624 25.5123 22.7217
C 30.4536 25.4979 26.4223
C 31.1727 26.7613 22.668
C 31.8957 25.5078 26.5821
C 28.3815 26.8418 16.143
C 28.3063 26.7231 19.4934
C 29.0957 28.0809 16.0863
C 29.7326 26.7197 19.5486
C 28.3206 26.7405 22.7951
C 28.321 26.7217 26.1625
C 29.0294 27.98 22.7649
C 29.7465 26.7308 26.2986
C 30.5093 23.1321 15.7932
C 30.4542 22.9998 19.4576
C 31.2227 24.3601 15.7547
C 31.8922 23.0016 19.5918
C 30.4538 23.0293 22.7039
C 30.4778 23.0224 26.4962
C 31.1747 24.261 22.7098
C 31.914 23.0397 26.6257
C 28.3819 24.3717 16.0953
C 28.3096 24.2476 19.4429
C 29.0943 25.6047 16.0739
C 29.7381 24.2465 19.4921
C 28.3137 24.2694 22.77
C 28.3354 24.2447 26.233
C 29.0333 25.504 22.7634
C 29.7563 24.2568 26.374
C 30.5164 30.5609 15.9539
C 30.4482 30.4336 19.5854
C 31.233 31.8256 15.9343
C 31.8749 30.4282 19.593
C 30.4638 30.4536 22.7068
C 30.4481 30.4525 26.2464
C 31.1781 31.6866 22.7142
C 31.901 30.4456 26.2745
C 24.0713 34.2585 15.9433
C 24.0466 34.1665 19.3639
C 24.8036 35.5086 15.9172
C 25.4579 34.1666 19.5043
C 26.2121 33.0132 15.8595
C 26.1751 32.9198 19.5065
C 26.9314 34.2686 15.718
C 27.6033 32.9178 19.5657
C 24.0405 34.1711 22.7749
C 23.9938 34.0956 26.571
C 24.7675 35.4141 22.7292
C 25.415 34.1183 26.53
C 26.1769 32.9227 22.706
C 26.1486 32.8911 26.3692
C 26.8968 34.1748 22.6118
C 27.5759 32.9094 26.3692
C 28.363 31.7814 15.8835
C 28.3118 31.6755 19.5644
C 29.0839 33.035 15.7452
C 29.7473 31.6683 19.6116
C 28.3231 31.673 22.6998
C 28.2984 31.68 26.2547
C 29.0437 32.917 22.6224
C 29.7309 31.69 26.2803
C 30.5248 28.0787 15.9726
C 30.4372 27.9629 19.5915
C 31.2373 29.3239 15.9191
C 31.877 27.9658 19.6696
C 30.4561 27.9899 22.6919
C 30.446 27.9766 26.3428
C 31.175 29.2309 22.667
C 31.8885 27.9852 26.4986
C 24.0767 31.7849 16.021
C 24.0387 31.6887 19.3454
C 24.7897 33.0165 15.9414
C 25.4645 31.6843 19.4155
C 26.2246 30.5495 16.0646
C 26.1739 30.446 19.4178
C 26.9362 31.7871 15.9408
C 27.5965 30.4387 19.4978
C 24.0396 31.6951 22.8429
C 24.013 31.6374 26.2582
C 24.7556 32.9283 22.7706
C 25.4378 31.6508 26.2362
C 26.1841 30.4554 22.8503
C 26.1615 30.4233 26.1395
C 26.8953 31.6881 22.7529
C 27.5931 30.4376 26.1584
C 28.3781 29.3135 16.0769
C 28.3069 29.1984 19.5156
C 29.0846 30.5551 15.9754
C 29.7324 29.1949 19.5667
C 28.3216 29.2134 22.7856
C 28.3089 29.2026 26.1504
C 29.0349 30.4504 22.7303
C 29.7358 29.207 26.2382
H 14.4435 21.8745 15.6319
H 14.9247 20.8732 19.4376
H 14.3696 21.84 22.5509
H 14.9863 20.7686 26.7895
H 22.1652 16.0213 15.6509
C 22.7183 16.9653 15.6618
H 23.494 15.9218 19.4867
H 22.0568 15.9192 22.6786
C 22.6059 16.8653 22.7211
H 23.559 15.8665 26.2665
H 15.688 19.7068 15.6106
C 16.2367 20.6518 15.6521
H 17.0541 19.6389 19.5693
H 17.8631 18.4477 15.6279
C 18.4035 19.3974 15.6665
H 15.5851 19.6861 22.7796
C 16.1431 20.6277 22.7605
H 17.1509 19.547 26.8415
H 17.7298 18.4071 22.8278
C 18.2869 19.3482 22.8301
H 20.0285 17.2376 15.5553
C 20.564 18.1919 15.5837
H 21.3466 17.1533 19.6235
H 19.9007 17.1504 22.7184
C 20.4434 18.1005 22.7279
H 21.4072 17.1011 26.557
H 24.6354 16.0245 15.8507
H 24.5304 15.9269 22.8489
H 13.6523 25.488 19.2722
C 14.7463 25.5045 19.3272
H 13.6733 25.3937 26.5181
C 14.7668 25.405 26.5004
H 13.6726 23.0132 19.386
H 14.444 24.3706 15.541
C 14.7671 23.0158 19.4225
H 13.7134 22.8966 26.585
H 14.3797 24.325 22.5573
C 14.8074 22.9111 26.5836
H 13.6821 30.5318 19.4135
H 14.4519 31.7651 15.3651
C 14.7767 30.5157 19.4187
H 13.6581 30.3662 26.2361
H 14.4077 31.6927 22.9605
C 14.7514 30.367 26.2703
H 13.6468 28.0192 19.1305
H 14.4521 29.2833 15.4172
C 14.7384 28.0103 19.1973
H 13.6573 27.8765 26.4024
H 14.4174 29.2342 23.1569
C 14.7519 27.8788 26.3927
C 15.5364 21.8731 15.6663
C 15.4628 21.8267 19.4491
C 16.2139 23.1213 15.6963
C 16.8845 21.7951 19.4996
C 17.6605 20.6067 15.6904
C 17.6051 20.5858 19.5469
C 18.3812 21.8773 15.7752
C 19.0129 20.5561 19.6424
C 15.5371 24.3657 15.5978
C 15.4404 24.2675 19.4456
C 16.2316 25.59 15.5438
C 16.8803 24.2654 19.4921
C 17.6665 23.1151 15.7762
C 17.5961 23.0384 19.5114
C 18.3835 24.3583 15.8161
C 19.0253 23.0408 19.5266
C 15.4612 21.8323 22.6228
C 15.5198 21.7201 26.7096
C 16.1511 23.0772 22.6045
C 16.9424 21.7009 26.699
C 17.5652 20.5695 22.7815
C 17.6867 20.4966 26.744
C 18.2892 21.8202 22.7705
C 19.0902 20.4903 26.7148
C 15.4727 24.3199 22.6149
C 15.4648 24.1737 26.5326
C 16.1625 25.5445 22.6548
C 16.9133 24.1779 26.4707
C 17.5886 23.0569 22.7062
C 17.6417 22.9559 26.5349
C 18.3128 24.2933 22.7296
C 19.0728 22.9654 26.4378
C 21.9633 20.6603 15.7687
C 21.8817 20.5678 19.5401
C 22.6726 21.8977 15.9338
C 23.3054 20.5627 19.4646
C 21.8672 20.5663 22.7631
C 21.9495 20.5135 26.4444
C 22.5854 21.8026 22.7844
C 23.3666 20.5151 26.314
C 19.8176 21.8809 15.8298
C 19.7369 21.812 19.5694
C 20.5235 23.1224 15.9451
C 21.1652 21.8051 19.531
C 19.7279 21.8107 22.7963
C 19.7987 21.7448 26.5248
C 20.4479 23.0433 22.7882
C 21.2207 21.7398 26.3924
C 21.9708 18.1809 15.5993
C 21.8881 18.1022 19.5771
C 22.693 19.4273 15.6521
C 23.3001 18.0788 19.4831
C 21.8608 18.0783 22.6909
C 21.9533 18.0484 26.5053
C 22.5869 19.3224 22.7356
C 23.3621 18.0235 26.3462
C 19.8228 19.3848 15.6332
C 19.7408 19.3433 19.5953
C 20.5418 20.6453 15.7393
C 21.1518 19.3115 19.5906
C 19.7042 19.3076 22.7654
C 19.8237 19.2822 26.6232
C 20.4385 20.5675 22.784
C 21.2371 19.2562 26.6086
C 21.9485 25.6012 16.0935
C 21.8808 25.508 19.3648
C 22.6614 26.8382 16.1229
C 23.3096 25.4991 19.3416
C 21.8864 25.5104 22.816
C 21.9036 25.4455 26.0903
C 22.6053 26.7432 22.8848
C 23.3324 25.4538 26.0566
C 15.5452 29.2895 15.4875
C 15.4355 29.2679 19.3182
C 16.2241 30.5305 15.5298
C 16.8886 29.2618 19.4008
C 17.6806 28.07 15.6649
C 17.6002 28.002 19.3954
C 18.3812 29.3056 15.7637
C 19.029 27.9982 19.4066
C 15.5101 29.2341 23.082
C 15.4302 29.1094 26.2971
C 16.1897 30.4646 22.9766
C 16.8809 29.1275 26.2761
C 17.6245 28.0027 22.914
C 17.6025 27.8913 26.271
C 18.3305 29.2316 22.8759
C 19.0313 27.9014 26.1916
C 19.8069 26.8354 15.9474
C 19.74 26.7544 19.4014
C 20.519 28.0735 15.9924
C 21.1653 26.7483 19.3408
C 19.7508 26.7546 22.7982
C 19.7533 26.6703 26.1589
C 20.4675 27.991 22.8249
C 21.1816 26.6784 26.0926
C 21.9524 23.1285 16.0092
C 21.8821 23.0377 19.477
C 22.6637 24.3649 16.0988
C 23.3113 23.032 19.4423
C 21.8746 23.0385 22.7886
C 21.9222 22.9771 26.2253
C 22.5949 24.2733 22.806
C 23.349 22.9834 26.1591
C 15.5531 26.8289 15.5536
C 15.414 26.7467 19.2965
C 16.2367 28.0674 15.4789
C 16.879 26.7497 19.382
C 17.6778 25.5916 15.712
C 17.5947 25.5143 19.4634
C 18.3825 26.8326 15.7843
C 19.0266 25.5145 19.4558
C 15.4902 26.7716 22.8942
C 15.4383 26.6564 26.4532
C 16.1877 28.0027 23.0635
C 16.8948 26.6621 26.3696
C 17.6118 25.5284 22.7257
C 17.6189 25.4283 26.3616
C 18.3253 26.7607 22.8084
C 19.0472 25.4315 26.246
C 19.8095 24.3578 15.9414
C 19.7387 24.2805 19.4838
C 20.5277 25.5995 16.0024
C 21.1674 24.2764 19.4496
C 19.7405 24.2823 22.7705
C 19.7696 24.2025 26.2696
C 20.4595 25.5147 22.7844
C 21.1976 24.2074 26.18
C 24.0883 16.9682 15.7745
C 24.0411 16.8633 19.4044
C 24.8305 18.185 15.8345
C 25.4058 16.8598 19.2305
H 25.9506 15.9142 19.181
H 26.768 17.2501 15.9768
C 24.1094 19.4267 15.8057
C 24.0207 19.3191 19.4006
C 24.8111 20.6619 15.952
C 25.4325 19.3144 19.224
C 26.2253 18.1988 15.94
C 26.146 18.0708 19.1254
C 26.9528 19.3986 16.0132
C 27.5611 18.0827 19.0344
C 23.979 16.8716 22.8167
C 24.1072 16.8129 26.2729
C 24.7149 18.085 22.876
C 25.5065 16.814 26.2352
H 26.052 15.8665 26.2016
H 26.6728 17.1611 23.0127
C 24.0044 19.3236 22.8194
C 24.0906 19.2758 26.2948
C 24.7186 20.5628 22.8356
C 25.5172 19.2798 26.27
C 26.1263 18.1094 22.9657
C 26.256 18.0296 26.2759
C 26.8457 19.3106 22.9806
C 27.659 18.0584 26.3805
H 28.095 17.1289 18.9735
H 28.2093 17.1123 26.3842
C 30.5091 20.6688 15.8391
C 30.4715 20.5151 19.1705
C 31.2085 21.8788 15.6313
C 31.8694 20.5397 19.4511
C 30.4251 20.5609 22.7389
C 30.5063 20.531 26.5665
C 31.1682 21.7767 22.6451
C 31.9257 20.5861 26.577
C 24.0925 24.368 16.1448
C 24.026 24.2656 19.3998
C 24.8071 25.6039 16.1849
C 25.4555 24.2588 19.4033
C 26.2343 23.1368 16.142
C 26.1691 23.0202 19.3874
C 26.9515 24.3708 16.172
C 27.5992 23.0116 19.3781
C 24.0232 24.2705 22.8189
C 24.0546 24.2222 26.0816
C 24.7462 25.5011 22.8716
C 25.4829 24.2295 26.0868
C 26.159 23.0331 22.7919
C 26.2047 22.9969 26.1604
C 26.8825 24.2686 22.7963
C 27.6294 23.0045 26.2429
C 28.3821 21.9005 16.0356
C 28.3115 21.7769 19.282
C 29.0918 23.1337 15.982
C 29.7482 21.772 19.2986
C 28.2927 21.8081 22.7803
C 28.3449 21.7709 26.3844
C 29.0197 23.0336 22.7506
C 29.7804 21.7833 26.4905
H 30.2717 18.3651 18.8296
H 31.067 19.7262 15.8508
H 30.3441 18.3666 26.5465
H 30.9643 19.6044 22.7548
C 24.095 21.8997 16.0025
C 24.0262 21.798 19.4234
C 24.8078 23.1331 16.114
C 25.4501 21.7905 19.3606
C 26.2273 20.6563 16.0421
C 26.1613 20.553 19.2442
C 26.9502 21.8969 16.1023
C 27.5886 20.5432 19.1828
C 24.0098 21.8006 22.7932
C 24.0732 21.7506 26.2062
C 24.7309 23.0332 22.7975
C 25.4998 21.7555 26.2007
C 26.1381 20.5655 22.8781
C 26.2225 20.5242 26.2796
C 26.8653 21.7975 22.8111
C 27.64 20.5261 26.3906
C 28.3717 19.4294 15.9764
C 28.3102 19.2848 19.013
C 29.1098 20.6362 15.9805
C 29.7324 19.3116 18.9462
C 28.2737 19.3329 22.8333
C 28.3715 19.2654 26.4717
C 29.0081 20.5564 22.7759
C 29.7884 19.309 26.5391
H 32.4208 19.5938 19.4774
H 33.1752 20.9581 15.4669
H 32.4817 19.6438 26.5719
H 33.1176 20.8527 22.4943
H 14.9429 32.6482 19.6999
H 14.9006 32.5248 26.3157
C 15.5418 31.7753 15.4583
C 15.4842 31.7055 19.57
C 16.2263 32.99 15.5132
C 16.9032 31.735 19.5854
C 17.6622 30.5427 15.6747
C 17.6103 30.4861 19.4936
C 18.3662 31.7808 15.7071
C 19.0417 30.4815 19.4573
H 15.6758 33.9332 15.4529
H 17.0892 33.8991 19.5616
C 17.6483 33.0391 15.5992
C 17.6368 32.9524 19.4993
C 18.3753 34.2552 15.6158
C 19.0512 32.9738 19.5165
C 15.5017 31.7063 22.9305
C 15.4468 31.5775 26.3171
C 16.1783 32.9019 22.8493
C 16.872 31.6195 26.3907
C 17.6158 30.4689 22.889
C 17.5904 30.3629 26.3162
C 18.3168 31.6993 22.8096
C 19.0259 30.37 26.3213
H 15.6295 33.8481 22.8238
H 17.0465 33.7662 26.6289
C 17.5986 32.9458 22.8111
C 17.5943 32.8205 26.5682
C 18.3205 34.1653 22.8658
C 19.0048 32.84 26.6636
C 21.9389 30.5477 16.0136
C 21.8915 30.4639 19.3022
C 22.6498 31.7858 15.9945
C 23.3192 30.461 19.2814
C 21.8957 30.4634 22.8518
C 21.8779 30.3881 26.2115
C 22.6101 31.6988 22.8541
C 23.3056 30.4001 26.1669
C 19.8034 31.7874 15.8111
C 19.7598 31.7091 19.4509
C 20.516 33.0267 15.7931
C 21.1854 31.7037 19.3452
C 19.7533 31.7031 22.8012
C 19.7335 31.5956 26.4567
C 20.464 32.9398 22.8484
C 21.1589 31.6144 26.3743
C 21.945 28.0743 16.0787
C 21.877 27.9856 19.2636
C 22.6561 29.3113 16.0813
C 23.3082 27.9783 19.1646
C 21.8939 27.9862 22.8747
C 21.89 27.9186 26.0806
C 22.6106 29.226 22.9088
C 23.319 27.9287 26.0574
C 19.8023 29.3114 15.9136
C 19.7459 29.2347 19.3929
C 20.5133 30.5483 15.9304
C 21.1708 29.2268 19.3169
C 19.7573 29.2293 22.8238
C 19.7408 29.1392 26.1986
C 20.47 30.4636 22.8185
C 21.1697 29.1496 26.1499
C 21.9096 35.5139 15.9124
C 21.9318 35.3824 19.1378
C 22.6607 36.7261 15.9793
C 23.3364 35.4035 19.2711
C 21.8876 35.4341 22.9324
C 21.8508 35.2932 26.7251
C 22.6423 36.6418 22.8922
C 23.2577 35.3233 26.7559
H 19.9616 36.4396 15.7611
H 21.3958 36.3329 19.0553
H 19.9278 36.3646 22.9841
H 21.2987 36.2335 26.8217
C 21.9333 33.0212 15.9109
C 21.9131 32.9323 19.2683
C 22.6453 34.2616 15.9362
C 23.3319 32.9285 19.3186
C 21.8954 32.9344 22.8696
C 21.8684 32.8471 26.4787
C 22.6185 34.1785 22.87
C 23.2851 32.8598 26.4239
H 17.824 35.1988 15.5691
H 17.7634 35.105 22.9137
C 19.7908 34.2896 15.6938
C 19.7847 34.1729 19.3289
C 20.5088 35.492 15.7773
C 21.2014 34.1849 19.1465
C 19.7312 34.2057 22.8939
C 19.73 34.0474 26.6935
C 20.4693 35.4155 22.9539
C 21.1365 34.0848 26.6384
C 32.6332 21.9146 15.5327
C 32.5523 21.7433 19.6709
C 33.3331 23.1134 15.5836
H 33.6285 21.7234 19.866
C 32.6657 24.3614 15.6327
C 32.5741 24.2459 19.6266
C 33.3606 25.6012 15.6551
H 33.6654 24.2472 19.7299
H 34.4281 23.1093 15.583
C 32.581 21.8027 22.5745
C 32.6061 21.7966 26.6314
C 33.2924 23.0058 22.6428
H 33.7003 21.8098 26.6675
C 32.6265 24.2623 22.6766
C 32.5924 24.286 26.5781
C 33.3139 25.5031 22.6969
H 33.6851 24.2966 26.6501
H 34.3847 22.9985 22.5808
C 32.6998 29.3249 15.836
C 32.557 29.1951 19.6293
C 33.3659 30.5792 15.9056
H 33.649 29.1968 19.6894
H 34.4737 28.0833 15.695
C 32.6147 29.2263 22.6373
C 32.5808 29.2086 26.4075
C 33.2939 30.4738 22.694
H 33.6745 29.205 26.4458
H 34.4065 27.9931 22.6372
C 32.6933 26.8405 15.7353
C 32.567 26.7234 19.567
C 33.3827 28.0805 15.7575
H 34.4541 25.5995 15.5813
C 32.6348 26.7535 22.6448
C 32.5751 26.748 26.4946
C 33.3111 27.9903 22.6477
H 34.4099 25.4915 22.6657
H 22.1167 37.6743 16.011
H 23.5216 37.5598 19.2722
H 22.1028 37.5922 22.9392
H 23.4331 37.486 26.8541
C 24.0604 36.7214 15.98
C 24.0727 36.6172 19.3424
H 24.6107 37.6656 16.017
C 25.4387 36.6237 19.5002
C 26.2163 35.4783 15.8022
C 26.1813 35.4106 19.5775
H 26.7662 36.4246 15.7787
C 27.5968 35.3895 19.617
H 25.9857 37.571 19.5575
C 24.0309 36.6294 22.7837
C 23.9933 36.5491 26.7811
H 24.5823 37.5719 22.7501
C 25.3737 36.5677 26.7135
C 26.1801 35.3812 22.6652
C 26.1285 35.3669 26.6317
H 26.7254 36.3271 22.6024
C 27.5475 35.3647 26.5929
H 25.9133 37.5194 26.7344
H 30.3026 35.079 19.662
H 30.256 35.105 26.6701
H 28.1395 36.3391 19.6535
H 28.0769 36.3202 26.6569
C 30.4904 33.0302 15.8368
C 30.4658 32.9166 19.652
H 31.03 33.9816 15.8145
C 31.887 32.8706 19.6228
C 30.4496 32.8935 22.671
C 30.4582 32.9506 26.3933
H 30.9965 33.8422 22.5855
C 31.8773 32.9109 26.2878
C 28.3465 34.2405 15.7621
C 28.3328 34.1783 19.6244
C 29.7472 34.137 19.635
C 28.3144 34.1407 22.6924
C 28.2954 34.1708 26.5259
C 29.7169 34.1606 26.5508
C 32.6539 31.7932 15.9662
C 32.5609 31.6717 19.5951
H 33.1956 32.7411 16.0252
H 33.6546 31.6607 19.6
H 34.4593 30.5862 15.9178
H 32.4353 33.8183 19.6439
C 32.5971 31.658 22.7313
C 32.5792 31.6928 26.2238
H 33.1339 32.6122 22.7486
H 33.6701 31.6923 26.1584
H 34.3904 30.4724 22.6875
H 32.4266 33.8569 26.2771
H 33.6679 26.7522 26.5707
H 19.2809 18.3346 26.7063
H 19.1801 34.9892 26.7893
H 14.3956 26.775 22.9321
H 28.8604 35.079 22.533
H 33.6571 26.7242 19.6863
H 28.8262 18.3886 22.9241
H 19.1937 18.3966 19.6511
H 19.2512 35.1324 19.3171
H 28.8918 35.1892 15.7154
H 14.4592 26.8295 15.4966
H 28.9176 18.4818 15.9623
Li 16.9611 21.9114 13.9636
Li 16.2001 25.2654 17.5833
Li 31.2644 31.6538 28.0237
Li 19.0254 20.4236 17.5806
Li 31.9644 30.6639 14.1817
Li 22.4483 19.1924 17.6953
Li 16.1093 30.3189 28.0593
Li 18.956 32.9561 24.6469
Li 24.8582 17.9934 28.0291
Li 16.0053 25.4044 24.658
Li 27.6699 20.6778 14.2816
Li 18.8845 20.5211 24.6519
Li 23.3492 35.5538 14.1994
Li 18.9943 33.2065 17.5008
Li 16.1808 28.1252 17.5097
Li 21.3012 19.1208 24.5619
Li 29.2 20.4018 24.724
Li 32.0285 25.4763 24.5301
Li 23.4505 35.4404 24.6727
Li 26.8037 34.3736 24.6661
Li 26.881 34.3688 17.7554
Li 21.1542 34.3713 21.128
Li 31.9934 28.1788 24.47
Li 26.8312 19.1161 20.9521
Li 16.2948 22.3379 24.669
Li 32.2158 25.4151 17.6041
Li 29.2812 32.92 17.7923
Li 32.1895 28.1259 17.6602
Li 31.9088 22.5742 24.5616
Li 15.9043 28.0715 21.0905
Li 29.5351 33.7008 24.5089
Li 29.3971 19.9716 20.8985
Li 16.6604 31.771 17.458
Li 23.7068 28.0154 21.1562
Li 31.6215 21.8441 17.6476
Li 26.7192 25.1319 21.1637
