608
592nano.out 0 0 0
C 22.693 21.8147 16.7879
C 20.5434 23.0317 16.7647
C 21.9906 20.5733 16.6737
C 24.117 21.8263 16.8174
C 19.8427 21.7898 16.641
C 19.82 24.2583 16.7846
C 29.0691 25.5776 16.7517
C 29.0482 28.0486 16.7623
C 28.3707 24.337 16.7849
C 20.4761 30.439 16.9047
C 22.6057 31.6942 16.933
C 19.7747 29.1995 16.881
C 28.3282 29.2761 16.809
C 24.0313 31.7084 16.9359
C 24.8416 20.5963 16.7284
C 21.9685 23.0424 16.8369
C 18.3932 24.2467 16.6787
C 26.968 21.85 16.7595
C 28.3493 26.8068 16.8289
C 18.3695 26.716 16.7577
C 21.9025 30.4529 16.9603
C 20.5674 20.5637 16.5996
C 29.0917 23.1064 16.6813
C 26.245 23.0807 16.8577
C 19.7967 26.7286 16.8627
C 26.1821 30.4928 16.9202
C 18.3472 29.1863 16.7769
C 30.4923 25.5922 16.606
C 26.8829 31.7367 16.8208
C 30.4713 28.0614 16.6131
C 19.7514 31.6702 16.8374
C 29.0272 30.5202 16.7043
C 26.9047 29.2643 16.9129
C 24.7572 30.4797 16.9713
C 21.8796 32.9243 16.8588
C 24.7338 32.9514 16.8477
C 24.8198 23.0669 16.886
C 26.9459 24.3213 16.8759
C 20.5195 25.5001 16.8733
C 20.4974 27.9694 16.9185
C 26.2649 20.6111 16.7026
C 17.6727 25.4744 16.6674
C 22.7174 19.3467 16.6013
C 28.3913 21.8668 16.6789
C 18.4188 21.7822 16.5333
C 17.6497 27.9457 16.7139
C 24.1357 19.3589 16.6311
C 17.6978 23.0039 16.556
C 31.1897 26.8337 16.5363
C 28.3048 31.7467 16.7131
C 26.1571 32.9629 16.7889
C 20.4542 32.9089 16.8185
C 26.9258 26.7929 16.9244
C 22.6266 29.224 16.9939
C 22.6695 24.2829 16.9164
C 30.5134 23.1263 16.5487
C 31.2087 24.3621 16.5028
C 17.6283 30.4173 16.7115
C 18.3259 31.6534 16.7463
C 31.1657 29.305 16.5113
C 26.2035 28.0219 16.9628
C 24.0538 29.2372 17.0058
C 30.4478 30.5278 16.5588
C 26.2243 25.5507 16.9401
C 21.9244 27.9826 16.9773
C 22.5843 34.1636 16.7876
C 21.946 25.5119 16.9364
C 24.0962 24.2957 16.9392
C 24.0043 34.1767 16.7795
C 19.8617 19.3153 16.4648
C 24.777 28.0081 17.0013
C 22.6482 26.7534 16.9803
C 24.7979 25.5372 16.971
C 22.0016 18.1018 16.4839
C 17.7214 20.5273 16.3976
C 26.9958 19.3727 16.5808
C 29.1168 20.6249 16.5575
C 16.2352 25.4642 16.5397
C 24.8739 18.1242 16.5312
C 16.2128 27.9295 16.5825
C 16.2603 23.0013 16.4391
C 24.0748 26.7664 16.9967
C 32.6209 26.848 16.3714
C 20.6056 18.1093 16.4251
C 18.4482 19.3332 16.3738
C 19.7231 34.1469 16.7352
C 31.2323 21.8805 16.4417
C 29.0065 33.0005 16.5811
C 26.865 34.2135 16.66
C 32.642 24.3875 16.3492
C 16.191 30.3941 16.5866
C 32.5982 29.3085 16.3529
C 17.6024 32.897 16.6699
C 21.8442 35.3988 16.707
C 31.1425 31.7853 16.4417
C 24.72 35.4242 16.672
C 26.2679 18.1542 16.5172
C 15.5674 24.2112 16.4459
C 33.3111 25.6129 16.2925
C 28.4024 19.411 16.5272
C 33.2893 28.0952 16.2947
C 30.5343 20.6737 16.4638
C 15.5443 26.6905 16.5114
C 22.763 16.8804 16.4256
C 18.3077 34.104 16.679
C 20.4467 35.365 16.6945
C 15.5231 29.1704 16.5328
C 16.2842 20.5515 16.3011
C 24.1332 16.8924 16.4482
C 15.5872 21.7305 16.3214
C 30.4231 32.979 16.4664
C 28.2701 34.2012 16.5704
C 26.113 35.4204 16.6246
H 20.0626 17.1534 16.3324
H 17.9069 18.3763 16.2721
C 33.3376 23.128 16.269
C 32.6666 21.9361 16.3157
C 33.2702 30.5791 16.2662
C 15.4936 31.6533 16.5285
C 16.1656 32.8467 16.5715
C 32.5768 31.7591 16.3081
C 22.5845 36.6327 16.6357
C 23.9543 36.6449 16.6162
H 34.3869 28.1063 16.1751
H 34.4088 25.6236 16.1753
H 26.8242 17.2042 16.4504
H 22.212 15.929 16.3579
H 15.752 19.5895 16.2076
H 14.467 24.1978 16.3699
H 19.886 36.3144 16.6381
H 17.7505 35.0554 16.6227
H 31.0913 19.7239 16.3953
H 14.4229 29.1601 16.4525
H 24.7001 15.9486 16.403
H 28.9583 18.4615 16.4538
H 14.4868 21.7293 16.2494
H 14.4446 26.6777 16.432
H 30.9608 33.9396 16.39
H 26.6516 36.3806 16.5524
H 34.4349 23.1471 16.1672
H 33.2173 20.9829 16.2564
H 28.8068 35.1619 16.4923
H 34.368 30.5846 16.1608
H 15.6146 33.8007 16.5262
H 14.3932 31.636 16.4537
H 22.0161 37.5773 16.5926
H 33.1081 32.722 16.2428
H 24.5039 37.5989 16.5594
C 23.4305 20.5688 19.8486
C 19.1175 23.0118 19.8025
C 21.2712 21.7964 19.8374
C 22.0095 20.566 19.7723
C 26.2832 20.593 19.8336
C 19.8457 21.7918 19.7486
C 25.5557 21.8233 19.9372
C 28.4047 21.8448 19.8357
C 24.1284 21.815 19.9317
C 27.6852 23.076 19.931
C 19.0854 25.4871 19.9206
C 19.8157 24.2586 19.9156
C 24.1554 19.3362 19.7797
C 19.0736 27.972 19.9773
C 17.6602 25.4771 19.8161
C 28.383 24.3216 19.9211
C 27.7084 20.6055 19.7791
C 17.6398 27.956 19.8675
C 29.8093 24.3386 19.7935
C 17.684 22.9981 19.6903
C 26.2576 23.0649 19.9769
C 19.7893 29.2103 20.0122
C 25.5731 19.3486 19.752
C 21.9726 23.0383 19.9454
C 19.7968 26.739 19.9898
C 19.0609 30.4423 19.9414
C 29.8321 21.857 19.7101
C 29.7974 26.8127 19.8397
C 28.3709 26.7988 19.9569
C 28.3548 29.2755 19.9583
C 16.9327 26.7103 19.7744
C 24.0601 31.7029 20.0768
C 21.9168 30.4689 20.0425
C 30.5283 23.0964 19.6747
C 16.9539 24.2225 19.7148
C 27.6389 30.5125 19.9854
C 23.4035 23.0471 19.9748
C 25.4959 31.7264 20.0601
C 21.2441 24.2698 19.9782
C 21.1926 31.7026 19.9801
C 26.2135 30.4981 20.0612
C 27.6663 25.555 19.9832
C 30.5061 25.5753 19.7351
C 21.2168 29.2243 20.0279
C 29.7793 29.2841 19.8285
C 27.6517 28.0326 20.0057
C 23.3424 30.4715 20.0826
C 21.3078 19.3111 19.6033
C 16.9133 29.1942 19.7803
C 23.3371 32.9363 20.0075
C 19.1429 20.5348 19.5597
C 17.6191 30.4302 19.8401
C 19.7644 31.6807 19.9504
C 30.4895 28.0593 19.7578
C 21.9131 32.9378 19.9351
C 25.5359 24.3007 20.0136
C 21.2281 26.7488 20.0339
C 25.4991 29.2559 20.0882
C 23.4499 18.0971 19.6883
C 28.4393 19.3608 19.6056
C 28.3337 31.7572 19.8636
C 26.2378 25.5451 20.0234
C 26.1885 32.9708 19.9366
C 21.9381 27.9894 20.0492
C 24.0703 29.2427 20.0857
C 26.2202 28.0219 20.0579
C 24.1073 24.2929 20.0131
C 21.952 25.5159 20.0246
C 16.9895 21.7462 19.5123
C 19.8752 19.3101 19.6261
C 26.2969 18.1143 19.5738
C 22.0452 18.1052 19.6144
C 30.4822 30.5361 19.7082
C 30.5544 20.6063 19.5943
C 17.7356 20.5401 19.4762
C 24.038 34.1918 19.9022
C 23.3662 27.9994 20.0665
C 25.5169 26.7785 20.0461
C 15.4854 26.6976 19.5718
C 23.3818 25.5256 20.0291
C 31.9384 25.5845 19.5211
C 27.6093 32.9886 19.8197
C 24.0886 26.7677 20.051
C 31.9622 23.1155 19.509
C 15.516 24.215 19.5649
C 29.7666 31.7663 19.7236
C 29.8474 19.3958 19.5661
C 15.4816 29.1829 19.5985
C 25.4632 34.2049 19.8661
C 31.9222 28.071 19.5476
C 27.7091 18.1426 19.4926
C 19.0292 32.9309 19.9011
C 16.8938 31.6733 19.7611
C 21.1681 34.1793 19.7912
C 24.1909 16.8779 19.6263
C 14.7916 27.9372 19.5346
C 32.6331 24.3614 19.4423
C 14.8118 25.4457 19.4918
C 32.6344 26.8347 19.5654
C 25.5622 16.8838 19.5624
C 15.5621 21.7585 19.4507
C 17.6113 32.8949 19.8351
C 31.9862 20.6576 19.4886
C 19.7511 34.146 19.8604
C 31.9128 30.5414 19.5329
H 19.3563 18.378 19.3264
H 21.509 17.149 19.4694
C 32.6596 21.8652 19.4309
C 23.3001 35.4328 19.8172
H 17.2034 19.5889 19.2762
C 32.6012 29.3049 19.4746
C 14.8487 22.948 19.503
C 21.8881 35.4013 19.803
H 30.4039 18.4533 19.4479
C 14.783 30.4308 19.5926
C 15.4621 31.6327 19.6723
H 28.2591 17.2038 19.3166
C 28.3122 34.2508 19.6251
H 23.6315 15.9305 19.5902
H 13.7046 27.9374 19.3348
C 30.4636 33.0265 19.5531
C 26.178 35.4545 19.7304
H 33.7177 24.3712 19.2248
H 15.0322 20.7966 19.3614
H 13.7213 25.426 19.3224
H 33.683 26.8401 19.2083
H 26.1219 15.9389 19.4688
H 32.538 19.7043 19.4178
H 17.0724 33.85 19.7072
H 19.1888 35.0933 19.7533
H 33.7551 21.8911 19.3265
H 33.6754 29.3115 19.2097
H 13.7494 22.9348 19.4373
H 13.6853 30.4246 19.4729
C 32.587 31.7929 19.4265
H 21.3243 36.3446 19.7021
C 24.0342 36.664 19.7418
H 14.9145 32.59 19.6088
C 27.5805 35.4521 19.6347
C 29.7334 34.2348 19.5198
C 31.8936 32.9962 19.4577
C 25.4194 36.6732 19.7001
H 33.6821 31.7908 19.3096
H 23.4696 37.6104 19.7007
H 28.1144 36.4081 19.5089
H 30.2653 35.1862 19.3558
H 32.431 33.9531 19.3589
H 25.9678 37.6272 19.6229
H 15.4046 19.884 23.4816
H 21.7907 15.9803 23.4613
H 17.5281 18.58 23.6586
H 19.6682 17.2778 23.6485
H 24.2733 15.9288 23.268
H 14.225 22.0857 23.5648
C 22.3667 16.9166 23.3929
C 15.9835 20.8236 23.4301
H 32.9473 20.6372 23.5897
C 18.1025 19.501 23.463
C 20.2342 18.211 23.4872
C 23.7385 16.891 23.295
H 26.4315 17.1167 23.4313
H 34.2606 22.7566 23.5717
C 15.3238 22.0475 23.4874
H 34.496 30.2502 23.4712
H 14.3056 24.5694 23.6615
H 14.4981 31.9818 23.7668
H 28.6047 18.3083 23.5575
H 30.7704 19.4637 23.4939
H 15.806 34.1163 23.8582
H 14.3824 27.0354 23.6916
H 34.4663 27.7356 23.3552
H 22.3598 37.6552 23.8342
H 33.2861 32.4305 23.6016
H 14.4463 29.5062 23.7692
H 34.3479 25.2314 23.6315
C 17.4126 20.7417 23.3878
C 21.6532 18.1586 23.4379
H 24.8503 37.5787 23.8484
C 19.5238 19.4399 23.4186
H 20.1696 36.4842 23.8591
C 32.4362 21.609 23.4967
C 33.162 22.7834 23.4964
H 17.9849 35.2984 23.872
C 25.9105 18.0839 23.315
C 33.3898 30.2743 23.4355
C 15.3979 24.5395 23.4952
H 31.172 33.722 23.6285
C 15.5982 31.9647 23.6936
C 24.5066 18.0964 23.2637
H 26.9647 36.284 23.729
H 29.0635 34.9939 23.7256
C 16.0481 23.2789 23.4501
C 16.3226 33.1485 23.7509
C 28.0828 19.2647 23.3729
C 32.7225 31.4888 23.4993
C 30.2516 20.4305 23.3845
C 22.8879 36.6924 23.7377
C 15.4524 27.0105 23.4057
C 33.3593 27.7653 23.318
C 15.534 29.4785 23.5675
C 33.2525 25.2756 23.4899
C 24.2673 36.6492 23.7459
C 26.6664 19.2825 23.3549
C 31.0025 21.6183 23.4182
C 20.6887 35.5194 23.7241
C 28.8458 20.4511 23.3064
C 16.1209 25.7463 23.4591
C 32.5169 24.0576 23.4417
C 18.5075 34.3359 23.7343
C 22.3996 19.3829 23.2698
C 32.6834 29.0468 23.3609
C 18.1601 21.9746 23.271
C 16.2531 30.7 23.5674
C 24.0196 26.7796 23.0663
C 16.1894 28.2309 23.4735
C 20.2772 20.6775 23.2376
C 32.6188 26.53 23.3728
C 24.7698 27.9973 23.0874
C 30.6084 32.7915 23.4357
C 22.589 26.8156 23.065
C 24.7007 25.5237 23.0564
C 23.8193 19.3533 23.2156
C 17.7594 33.1493 23.6837
C 26.3895 35.351 23.5964
C 22.1043 35.4953 23.6634
C 17.4854 23.23 23.308
C 28.4932 34.0649 23.5439
C 31.3002 31.5513 23.4729
C 24.0867 29.252 23.1189
C 26.1998 27.9608 23.0897
C 21.841 25.5968 23.0532
C 23.9502 24.3062 23.0447
C 19.9177 34.3236 23.6769
C 21.9084 28.0728 23.0934
C 26.1307 25.489 23.0671
C 24.9803 35.4043 23.6538
C 21.7056 20.6421 23.1916
C 19.5968 21.9339 23.1803
C 22.5217 24.3398 23.0432
C 22.6571 29.2907 23.1249
C 26.8813 26.7058 23.0798
C 25.9824 20.5487 23.204
C 29.1901 32.8378 23.4791
C 17.5614 25.7082 23.2853
C 28.1648 21.7231 23.1989
C 30.3359 22.8937 23.2825
C 27.0797 34.1287 23.4872
C 31.088 24.1014 23.2997
C 24.5641 20.5767 23.152
C 24.6297 23.0491 23.0622
C 20.4097 25.6329 23.0837
C 18.2354 24.4561 23.2182
C 17.6285 28.193 23.3065
C 26.8099 24.2323 23.0792
C 20.4767 28.1125 23.1233
C 26.9502 29.1786 23.1292
C 21.7724 23.1185 23.0683
C 26.7372 21.7603 23.151
C 24.8352 30.4709 23.1632
C 17.6905 30.6667 23.4514
C 31.2411 29.0797 23.2973
C 22.4534 21.8648 23.0985
C 20.3422 23.1537 23.0998
C 26.0593 23.0155 23.0857
C 23.8812 21.8332 23.0917
C 31.1673 26.5852 23.2553
C 19.7289 26.8924 23.1243
C 18.4395 31.8791 23.5096
C 19.6629 24.414 23.1118
C 18.3005 26.9321 23.213
C 28.9089 22.9329 23.1769
C 28.3123 26.6673 23.1069
C 26.267 30.4321 23.1713
C 22.7953 34.237 23.5105
C 21.9755 30.5488 23.1937
C 30.56 30.319 23.3354
C 18.3693 29.4053 23.2969
C 28.2353 24.1942 23.1137
C 30.4173 25.3714 23.218
C 20.6132 33.0543 23.4841
C 19.7977 29.3693 23.2029
C 30.4926 27.847 23.2083
C 28.9869 25.4106 23.1287
C 24.2201 34.19 23.4892
C 28.3792 29.1415 23.159
C 29.0665 27.8852 23.1463
C 20.5455 30.5882 23.242
C 24.155 31.7223 23.2354
C 19.8685 31.8408 23.3906
C 28.4402 31.6054 23.3144
C 22.7242 31.7632 23.2602
C 26.3275 32.9018 23.3461
C 22.0421 33.0173 23.4043
C 27.0123 31.65 23.2594
C 29.1229 30.3607 23.2516
C 24.9065 32.9377 23.3371
H 23.2397 15.8765 26.4877
H 14.7733 20.9832 26.6827
H 25.7272 15.8241 26.5029
H 32.2237 19.4205 26.6789
H 33.5082 21.5524 26.7196
H 13.5697 23.1579 26.7548
H 14.9927 32.7183 26.8958
H 13.7055 30.5876 26.8682
H 19.0118 18.4355 26.5308
H 21.1303 17.1583 26.5067
H 16.8915 19.7119 26.5736
H 33.5459 26.4832 27.1953
H 19.3279 35.1141 26.852
H 33.6934 31.4795 26.9243
H 23.6604 37.5135 26.9982
H 33.5511 24.0216 26.8037
H 17.158 33.9121 26.8516
H 27.8872 17.0264 26.5548
H 30.055 18.2264 26.6128
H 33.5915 29.0171 27.2372
H 32.5037 33.656 26.7991
H 21.4995 36.3147 26.9014
H 26.1481 37.4741 26.9815
H 13.6666 28.1125 26.7849
H 13.6213 25.6321 26.7525
C 23.82 16.8132 26.4742
C 25.1896 16.786 26.4791
C 15.3317 21.9332 26.6318
C 31.7011 20.3892 26.619
C 14.6689 23.1304 26.6678
C 32.4093 21.5642 26.6439
C 14.8057 30.5774 26.7855
C 15.5147 31.7509 26.8049
H 30.3825 34.9328 26.7782
H 28.2617 36.2023 26.8523
C 21.7009 18.1015 26.4681
C 19.5802 19.3794 26.4768
C 17.4581 20.6575 26.5173
C 32.5964 31.5069 26.8174
C 24.2041 36.5594 26.8954
C 31.9405 32.7109 26.7473
C 27.3587 17.9929 26.4949
C 25.573 36.5385 26.8832
C 29.527 19.1922 26.5387
C 32.4545 24.0484 26.6785
C 32.4841 26.526 26.8727
C 17.6901 32.9504 26.7517
C 19.8609 34.1539 26.746
C 14.7202 25.6143 26.6509
C 14.7653 28.0954 26.6821
C 32.5234 29.022 26.931
C 22.0336 35.3545 26.7939
C 23.0933 18.0575 26.4433
C 25.964 18.001 26.4512
C 16.7676 21.8693 26.5271
C 30.2676 20.3814 26.5264
C 15.3792 24.3837 26.5986
C 31.751 22.8419 26.5794
C 15.469 29.3042 26.6694
C 20.9855 19.3301 26.4339
C 16.9531 31.7661 26.7104
C 18.8756 20.5997 26.4474
C 28.1161 19.1927 26.471
C 29.8182 33.9899 26.6794
C 27.6955 35.2613 26.7467
C 15.4242 26.8445 26.5961
C 23.9898 26.7013 26.1171
C 31.8838 30.2648 26.762
C 31.7991 25.3004 26.6573
C 23.4281 35.3502 26.7695
C 19.1098 32.9629 26.6738
C 31.8231 27.7816 26.8278
C 21.2691 34.1586 26.691
C 30.5123 32.7743 26.6382
C 26.3012 35.3019 26.7446
C 23.2999 27.9498 26.147
C 25.4161 26.6752 26.1262
C 23.251 25.4786 26.1182
C 28.4081 34.0394 26.639
C 24.037 29.1712 26.1856
C 26.1537 27.8979 26.1594
C 23.8452 19.2865 26.3686
C 21.8723 27.9752 26.1737
C 26.1047 25.4248 26.1362
C 25.2624 19.2592 26.377
C 17.5013 23.1098 26.4351
C 21.8241 25.5042 26.1409
C 23.9393 24.2298 26.1299
C 16.8147 24.3508 26.4702
C 29.5862 21.6457 26.4245
C 30.3211 22.8624 26.4395
C 16.9058 29.2916 26.547
C 17.6406 30.5077 26.5623
C 25.4644 29.146 26.1906
C 21.134 26.7528 26.1698
C 25.3664 24.2032 26.1413
C 27.4253 20.4533 26.3701
C 21.7302 20.5624 26.3331
C 19.6155 21.8357 26.3443
C 30.4655 30.2962 26.5539
C 16.8581 26.8226 26.4624
C 24.1335 34.0995 26.6128
C 30.3735 25.3349 26.4455
C 29.7827 31.5403 26.5188
C 19.8039 31.7081 26.5132
C 25.551 34.0771 26.6033
C 30.4097 27.8162 26.5255
C 21.9679 32.9048 26.5295
C 21.1827 29.2221 26.2536
C 23.3458 30.4186 26.2673
C 27.5814 27.8709 26.2183
C 27.5312 25.3973 26.1904
C 21.0872 24.2809 26.1821
C 26.0025 20.4796 26.3191
C 23.2011 23.0071 26.1719
C 23.1527 20.5341 26.3024
C 18.9252 23.0808 26.3325
C 28.1632 21.6717 26.3336
C 17.546 25.5764 26.3923
C 17.5915 28.0457 26.4283
C 21.0392 21.8079 26.2824
C 21.9205 30.4422 26.3049
C 29.6422 24.117 26.3556
C 28.2679 26.6201 26.2413
C 21.7766 23.0335 26.1978
C 19.0658 30.491 26.4568
C 27.6689 32.8099 26.5005
C 19.7081 26.7771 26.2378
C 29.6893 26.5905 26.3886
C 26.0533 22.9531 26.1921
C 21.2293 31.6888 26.4385
C 26.2009 30.3684 26.2651
C 29.7364 29.066 26.4455
C 23.3924 32.8838 26.4883
C 23.891 21.7579 26.2234
C 19.661 24.3069 26.2497
C 19.7557 29.2444 26.3254
C 28.2151 24.1463 26.2435
C 25.3144 21.7312 26.2348
C 18.9724 25.553 26.2797
C 27.4778 22.9258 26.2428
C 19.0191 28.0239 26.3163
C 24.084 31.6386 26.3529
C 28.3587 31.5678 26.4238
C 26.2449 32.8352 26.4701
C 28.3138 29.0938 26.299
C 25.5092 31.6146 26.3488
C 27.6252 30.3427 26.312
Li 31.4876 21.814 21.3596
Li 16.9436 32.1473 21.8361
Li 16.3189 22.3188 21.5017
Li 24.8396 35.5899 21.5799
Li 31.5113 31.8159 21.3863
Li 29.1645 33.6194 21.5223
Li 20.9395 34.5917 21.8053
Li 21.0569 18.7085 21.5276
Li 15.1764 28.4957 21.6265
Li 15.5386 25.5803 21.4857
Li 27.2128 18.6503 21.464
Li 33.0692 28.2528 21.3004
Li 33.3444 27.8081 25.3664
Li 32.6398 25.3011 21.4596
Li 18.4778 19.7631 21.4021
Li 24.6028 17.0632 21.4282
