595
592nano.out 0 0 0
C 24.065 26.8293 16.2292
C 24.0472 26.7838 19.4859
C 24.7791 28.0617 16.2277
C 25.4679 26.7839 19.4852
C 26.2007 25.6004 16.2271
C 26.1776 25.5531 19.4838
C 26.9142 26.8319 16.2263
C 27.5988 25.5531 19.4827
C 24.0693 29.2937 16.2278
C 24.0481 29.2448 19.4844
C 24.7831 30.5263 16.2286
C 25.4689 29.2458 19.4841
C 26.2026 28.0635 16.2277
C 26.1781 28.0148 19.4842
C 26.9161 29.2961 16.2284
C 27.5991 28.0151 19.4833
C 24.0262 26.7224 22.7412
C 24.011 26.6713 25.9988
C 24.7366 27.9526 22.7424
C 25.433 26.6712 26.0004
C 26.1577 25.4924 22.7429
C 26.1437 25.4397 26.0009
C 26.8691 26.7222 22.7439
C 27.5664 25.4397 26.0016
C 24.0258 29.1829 22.7441
C 24.011 29.1343 26.0012
C 24.7362 30.4135 22.7466
C 25.4331 29.1344 26.0029
C 26.1578 27.9521 22.7441
C 26.1438 27.9027 26.0012
C 26.8686 29.1825 22.7465
C 27.5664 27.9024 26.0027
C 30.4778 25.6038 16.2335
C 30.4387 25.5515 19.4887
C 31.1886 26.8347 16.2387
C 31.8751 25.5532 19.4994
C 30.4285 25.4929 22.7391
C 30.411 25.4379 25.9867
C 31.1392 26.722 22.7365
C 31.8492 25.4394 25.9602
C 28.3383 26.8335 16.2268
C 28.3074 26.784 19.4831
C 29.051 28.0658 16.2283
C 29.7324 26.784 19.4859
C 28.2912 26.7221 22.745
C 28.2764 26.671 26.0004
C 29.0025 27.9522 22.745
C 29.7033 26.6708 25.9957
C 30.478 23.1438 16.2453
C 30.4386 23.085 19.4901
C 31.1875 24.3706 16.2433
C 31.8761 23.0935 19.5021
C 30.4266 23.0363 22.7319
C 30.4094 22.9708 25.9781
C 31.1368 24.2608 22.7324
C 31.8482 22.9791 25.9492
C 28.3383 24.3723 16.2271
C 28.308 24.32 19.4827
C 29.05 25.602 16.2266
C 29.732 24.3202 19.4858
C 28.2914 24.264 22.7427
C 28.2765 24.2061 25.9998
C 29.0024 25.4919 22.7432
C 29.7023 24.2066 25.9925
C 30.4782 30.5258 16.254
C 30.4391 30.4829 19.5044
C 31.1905 31.776 16.2868
C 31.8763 30.4743 19.5196
C 30.4268 30.4076 22.7403
C 30.4095 30.3708 25.9903
C 31.138 31.6567 22.733
C 31.8484 30.3624 25.9634
C 24.0705 34.2262 16.2554
C 24.0559 34.1695 19.5058
C 24.7976 35.4683 16.2884
C 25.4714 34.1719 19.5115
C 26.2074 32.9935 16.2499
C 26.184 32.9423 19.5006
C 26.9282 34.2385 16.281
C 27.6039 32.9431 19.509
C 24.019 34.1072 22.7424
C 24.0162 34.0629 25.9914
C 24.7451 35.3478 22.7358
C 25.433 34.0633 25.9981
C 26.1552 32.8739 22.7472
C 26.1469 32.8326 26.0058
C 26.8747 34.1168 22.7429
C 27.5681 32.832 26.0048
C 28.3424 31.7606 16.2496
C 28.3126 31.713 19.5004
C 29.0605 33.0072 16.2807
C 29.7338 31.7102 19.511
C 28.2903 31.6412 22.7468
C 28.2788 31.6014 26.0056
C 29.007 32.8858 22.7423
C 29.7018 31.598 25.9975
C 30.4779 28.0655 16.2354
C 30.4389 28.0165 19.4912
C 31.1871 29.2993 16.2484
C 31.8751 28.0149 19.5029
C 30.4285 27.9511 22.7407
C 30.411 27.9038 25.9895
C 31.1368 29.1832 22.7362
C 31.8492 27.9022 25.9637
C 24.0715 31.7596 16.2313
C 24.0514 31.7067 19.4867
C 24.786 32.9949 16.2411
C 25.4703 31.7082 19.4887
C 26.2054 30.5271 16.2313
C 26.1798 30.477 19.4855
C 26.9203 31.7635 16.2398
C 27.6008 30.4778 19.4884
C 24.023 31.6445 22.7471
C 24.0128 31.5982 26.004
C 24.7351 32.8776 22.7466
C 25.433 31.5982 26.007
C 26.1568 30.4116 22.7478
C 26.1443 30.3662 26.0052
C 26.8693 31.6457 22.7483
C 27.5668 30.3659 26.0069
C 28.3407 29.2956 16.2307
C 28.3085 29.2481 19.4859
C 29.0541 30.5308 16.2404
C 29.7324 29.248 19.4913
C 28.2915 29.1802 22.7467
C 28.2766 29.1358 26.0037
C 29.0035 30.4133 22.7458
C 29.7024 29.1352 25.9983
H 14.4543 21.8696 16.6036
H 14.9582 20.9394 19.5453
H 14.419 21.7776 22.6632
H 14.9165 20.8223 25.8585
H 22.1328 16.0249 16.3165
C 22.6852 16.9693 16.2776
H 23.5297 15.9897 19.518
H 22.0709 15.9289 22.6429
C 22.6276 16.871 22.669
H 23.4906 15.8706 25.8537
H 15.6828 19.7395 16.5711
C 16.2186 20.673 16.3727
H 17.0997 19.7066 19.5174
H 17.847 18.4676 16.2963
C 18.3811 19.4208 16.2188
H 15.6542 19.6334 22.6451
C 16.1929 20.5861 22.669
H 17.0557 19.589 25.8737
H 17.7921 18.4003 22.6524
C 18.3397 19.3496 22.6754
H 19.9972 17.2491 16.2718
C 20.5353 18.202 16.2398
H 21.3968 17.2271 19.5036
H 19.9366 17.1623 22.6524
C 20.484 18.1115 22.6762
H 21.3548 17.1074 25.871
H 24.6067 16.0348 16.3389
H 24.5468 15.9315 22.6581
H 13.7224 25.5496 19.5204
C 14.8183 25.5487 19.501
H 13.685 25.4334 25.9151
C 14.7801 25.4332 25.9477
H 13.7207 23.0825 19.5387
H 14.4291 24.3792 16.3553
C 14.8154 23.0713 19.5107
H 13.6817 22.965 25.8796
H 14.4244 24.243 22.695
C 14.7754 22.954 25.9168
H 13.7228 30.4915 19.5369
H 14.4623 31.7936 16.3621
C 14.8174 30.5017 19.5211
H 13.682 30.3803 25.8869
H 14.42 31.6702 22.6971
C 14.7757 30.3912 25.9256
H 13.7233 28.0263 19.5226
H 14.4602 29.3307 16.3416
C 14.8193 28.0248 19.5067
H 13.6852 27.9117 25.9169
H 14.425 29.2046 22.7065
C 14.7803 27.9119 25.9498
C 15.5265 21.871 16.3892
C 15.4986 21.8902 19.5133
C 16.1937 23.1452 16.2405
C 16.9363 21.8473 19.4908
C 17.6535 20.6193 16.219
C 17.6484 20.6536 19.4919
C 18.3591 21.8876 16.1637
C 19.0675 20.6169 19.4804
C 15.5192 24.3701 16.2582
C 15.4994 24.3339 19.4941
C 16.2084 25.6101 16.2412
C 16.9375 24.323 19.4813
C 17.6454 23.1239 16.1737
C 17.647 23.0975 19.4785
C 18.3591 24.3654 16.1932
C 19.0705 23.0913 19.475
C 15.5127 21.7681 22.6794
C 15.4569 21.7722 25.9069
C 16.1962 23.033 22.7052
C 16.8948 21.73 25.9408
C 17.6285 20.5468 22.6877
C 17.6056 20.5346 25.9212
C 18.3394 21.7965 22.7132
C 19.025 20.4984 25.9474
C 15.5189 24.2459 22.7084
C 15.4602 24.217 25.9525
C 16.197 25.4926 22.7225
C 16.8985 24.207 25.9791
C 17.6338 23.0237 22.7203
C 17.6068 22.9801 25.9736
C 18.3403 24.2589 22.7341
C 19.0308 22.9743 25.9881
C 21.9281 20.6639 16.21
C 21.919 20.6303 19.4778
C 22.6398 21.9006 16.2153
C 23.339 20.6273 19.4796
C 21.8896 20.5647 22.7257
C 21.8785 20.5116 25.9784
C 22.6033 21.7987 22.7383
C 23.2994 20.5096 25.987
C 19.7907 21.8881 16.1823
C 19.7835 21.8626 19.4749
C 20.499 23.1273 16.2059
C 21.2046 21.8587 19.4759
C 19.7607 21.7937 22.7252
C 19.7426 21.7447 25.9789
C 20.4724 23.0288 22.7384
C 21.1645 21.7411 25.989
C 21.9286 18.1909 16.2416
C 21.9412 18.1762 19.4905
C 22.6509 19.435 16.2217
C 23.3302 18.1566 19.491
C 21.8763 18.0946 22.6889
C 21.8989 18.0562 25.9192
C 22.6026 19.3353 22.7144
C 23.2896 18.0376 25.9381
C 19.7923 19.4056 16.212
C 19.7953 19.4144 19.4858
C 20.5047 20.6581 16.199
C 21.2001 19.3867 19.4822
C 19.7523 19.3203 22.6915
C 19.7518 19.2945 25.924
C 20.4698 20.5637 22.7163
C 21.1581 19.2671 25.9466
C 21.9274 25.5955 16.2284
C 21.9159 25.5536 19.4835
C 22.6413 26.8275 16.2291
C 23.3368 25.5533 19.4848
C 21.895 25.4918 22.7431
C 21.8779 25.4399 26.0008
C 22.6052 26.7225 22.7417
C 23.3 25.4397 26.0004
C 15.5536 29.3225 16.2908
C 15.5013 29.239 19.5058
C 16.2367 30.5354 16.2781
C 16.9392 29.2469 19.4943
C 17.6636 28.0697 16.2357
C 17.6469 28.0142 19.4865
C 18.3765 29.2995 16.236
C 19.0727 28.0146 19.4836
C 15.5194 29.2015 22.7196
C 15.4603 29.1278 25.9576
C 16.1969 30.4142 22.7243
C 16.8987 29.137 25.9841
C 17.6337 27.9558 22.7371
C 17.6072 27.9031 25.9947
C 18.3408 29.1871 22.7401
C 19.0334 27.9039 26.0019
C 19.7943 26.828 16.2255
C 19.7834 26.7841 19.4822
C 20.5091 28.061 16.2293
C 21.2051 26.7839 19.4836
C 19.7652 26.7228 22.7438
C 19.7443 26.6716 26.0019
C 20.4739 27.9536 22.7441
C 21.1669 26.6715 26.0021
C 21.9245 23.1306 16.219
C 21.9168 23.0933 19.479
C 22.6382 24.3643 16.2258
C 23.3372 23.0919 19.4808
C 21.8935 23.0296 22.742
C 21.8779 22.9767 25.9978
C 22.6044 24.2608 22.7432
C 23.2995 22.976 26.0005
C 15.5394 26.845 16.2757
C 15.4997 26.7867 19.4958
C 16.2257 28.0743 16.2609
C 16.9358 26.7852 19.4856
C 17.6515 25.5986 16.2193
C 17.6461 25.5554 19.4805
C 18.3665 26.8301 16.2244
C 19.072 25.5537 19.4795
C 15.5193 26.7237 22.7194
C 15.461 26.6724 25.9656
C 16.1973 27.9546 22.7268
C 16.8972 26.6721 25.9891
C 17.6334 25.4905 22.7342
C 17.6071 25.4409 25.9928
C 18.3401 26.723 22.74
C 19.0333 25.4395 26.0006
C 19.7867 24.3607 16.2109
C 19.7825 24.3251 19.4782
C 20.5014 25.5944 16.2238
C 21.2052 24.3228 19.4801
C 19.7643 24.2586 22.7408
C 19.7433 24.2094 25.9984
C 20.4738 25.4917 22.7437
C 21.1668 24.2076 26.0007
C 24.0498 16.9751 16.2911
C 24.0841 16.9322 19.5038
C 24.7993 18.2008 16.2629
C 25.4477 16.931 19.5055
H 26.0046 15.9886 19.5215
H 26.7353 17.2739 16.3286
C 24.0674 19.44 16.2349
C 24.0558 19.3976 19.4842
C 24.7822 20.6716 16.2287
C 25.471 19.3958 19.486
C 26.1893 18.2208 16.2825
C 26.1979 18.1552 19.4949
C 26.9276 19.4319 16.26
C 27.5903 18.173 19.4978
C 23.9911 16.873 22.6777
C 24.0441 16.8131 25.9025
C 24.7444 18.0974 22.7045
C 25.4085 16.8129 25.9113
H 25.9642 15.8706 25.8731
H 26.6773 17.1676 22.6899
C 24.0181 19.3378 22.7207
C 24.016 19.2792 25.9714
C 24.7345 20.5673 22.7338
C 25.4328 19.2787 25.9759
C 26.1334 18.1171 22.7061
C 26.16 18.0377 25.9475
C 26.8743 19.3276 22.7204
C 27.5535 18.0568 25.9416
H 28.1386 17.2241 19.5106
H 28.1013 17.1086 25.908
C 30.4797 20.6988 16.2885
C 30.4448 20.6085 19.4976
C 31.1912 21.8943 16.2728
C 31.8801 20.6468 19.5113
C 30.4257 20.5944 22.7142
C 30.4125 20.4933 25.9517
C 31.1377 21.7871 22.7186
C 31.8491 20.5318 25.9187
C 24.0625 24.3666 16.2275
C 24.0474 24.3229 19.4834
C 24.7759 25.5982 16.2276
C 25.4682 24.3221 19.483
C 26.2007 23.1383 16.2267
C 26.1791 23.0909 19.4814
C 26.9133 24.3693 16.2257
C 27.6 23.0903 19.4818
C 24.0255 24.2618 22.7427
C 24.0109 24.2082 26.0008
C 24.7365 25.492 22.7415
C 25.433 24.2078 26.002
C 26.1566 23.0328 22.7429
C 26.1441 22.976 26.0011
C 26.8684 24.2619 22.7434
C 27.5666 22.9761 26.0004
C 28.3401 21.9088 16.2381
C 28.3118 21.8552 19.4836
C 29.0528 23.1381 16.2328
C 29.7333 21.858 19.4885
C 28.2901 21.803 22.7349
C 28.2786 21.7405 25.9916
C 29.0033 23.0308 22.7379
C 29.7015 21.7437 25.9798
H 30.2821 18.4624 19.5114
H 31.0299 19.753 16.3351
H 30.2469 18.3474 25.9099
H 30.9746 19.6479 22.6996
C 24.0642 21.9037 16.2242
C 24.0505 21.8608 19.4801
C 24.7772 23.1358 16.226
C 25.4696 21.8596 19.4808
C 26.2037 20.6749 16.2357
C 26.1834 20.6257 19.4828
C 26.9165 21.9043 16.2297
C 27.6031 20.6251 19.4848
C 24.0225 21.8003 22.7404
C 24.0125 21.7441 25.9976
C 24.7358 23.0311 22.7431
C 25.4329 21.744 25.9993
C 26.1547 20.5706 22.7331
C 26.1467 20.5094 25.9901
C 26.869 21.7987 22.7386
C 27.5678 20.51 25.9854
C 28.3331 19.4589 16.2824
C 28.3214 19.382 19.4921
C 29.0602 20.6633 16.2633
C 29.734 19.4112 19.4987
C 28.2793 19.356 22.7157
C 28.2859 19.2662 25.9601
C 29.0067 20.5584 22.7231
C 29.6998 19.2961 25.9435
H 32.4176 19.6933 19.5262
H 33.1674 20.9838 16.3543
H 32.3861 19.5788 25.8797
H 33.1127 20.875 22.6872
H 14.964 32.6334 19.5401
H 14.9183 32.5237 25.8741
C 15.5549 31.8011 16.3143
C 15.5014 31.6811 19.5228
C 16.2384 32.9816 16.3081
C 16.9387 31.7206 19.5088
C 17.6733 30.5389 16.2499
C 17.6494 30.4712 19.4955
C 18.3829 31.7654 16.247
C 19.0725 30.4762 19.489
H 15.7024 33.9345 16.3484
H 17.1023 33.8602 19.5293
C 17.6737 33.0166 16.2739
C 17.6508 32.9133 19.5135
C 18.3876 34.214 16.2824
C 19.0694 32.9486 19.5039
C 15.5135 31.6794 22.7128
C 15.4574 31.5729 25.9202
C 16.194 32.861 22.715
C 16.8953 31.614 25.9542
C 17.6345 30.4224 22.7357
C 17.6073 30.3637 25.9819
C 18.3404 31.6493 22.7368
C 19.0312 30.3689 25.9947
H 15.6566 33.8147 22.7014
H 17.057 33.7549 25.8934
C 17.6295 32.8991 22.7279
C 17.6062 32.809 25.9385
C 18.3407 34.0962 22.7259
C 19.0256 32.8446 25.9636
C 21.937 30.5265 16.2276
C 21.918 30.4739 19.484
C 22.6507 31.7591 16.2293
C 23.3382 30.4757 19.4839
C 21.8941 30.4153 22.7457
C 21.8781 30.366 26.0008
C 22.604 31.6463 22.746
C 23.2998 30.3665 26.0028
C 19.8049 31.7656 16.2356
C 19.7856 31.7038 19.4917
C 20.517 32.9957 16.2412
C 21.2061 31.7081 19.4878
C 19.7616 31.6516 22.742
C 19.7431 31.5984 25.9888
C 20.4708 32.8814 22.7403
C 21.1649 31.6017 25.9969
C 21.9325 28.0609 16.2297
C 21.9164 28.014 19.4844
C 22.6458 29.2932 16.2272
C 23.3372 28.0144 19.4852
C 21.8951 27.9532 22.7431
C 21.878 27.903 26.0008
C 22.6048 29.1841 22.744
C 23.3001 27.9029 26.0003
C 19.8028 29.2971 16.2311
C 19.7838 29.2427 19.4846
C 20.5147 30.5275 16.2287
C 21.2063 29.2447 19.4836
C 19.7647 29.1869 22.7439
C 19.7434 29.1338 26.001
C 20.473 30.4163 22.7446
C 21.1669 29.1353 26.002
C 21.9275 35.4694 16.278
C 21.941 35.3904 19.5211
C 22.6793 36.6941 16.3147
C 23.33 35.4103 19.522
C 21.8773 35.3509 22.7307
C 21.8993 35.2869 25.9453
C 22.6283 36.5748 22.7211
C 23.2899 35.3047 25.9655
H 19.9871 36.4008 16.3184
H 21.3961 36.3393 19.5391
H 19.9366 36.2825 22.7157
H 21.3559 36.2362 25.901
C 21.9388 32.9954 16.2374
C 21.9201 32.9363 19.4933
C 22.6538 34.2268 16.2505
C 23.3398 32.9399 19.4928
C 21.8905 32.8804 22.7433
C 21.8788 32.8311 25.9909
C 22.6034 34.1098 22.7398
C 23.2997 32.8327 25.9991
H 17.8424 35.1646 16.3171
H 17.7936 35.0459 22.7149
C 19.8006 34.2414 16.2656
C 19.796 34.1511 19.512
C 20.5344 35.4515 16.284
C 21.2011 34.1795 19.5064
C 19.7535 34.1249 22.7328
C 19.7523 34.0486 25.9445
C 20.4849 35.3337 22.7268
C 21.1586 34.0759 25.9662
C 32.6294 21.935 16.3071
C 32.5597 21.8287 19.5144
C 33.3115 23.1166 16.3016
H 33.6528 21.8386 19.5317
C 32.6265 24.3797 16.2692
C 32.5531 24.3065 19.5076
C 33.3069 25.5959 16.277
H 33.6471 24.3041 19.5229
H 34.4054 23.127 16.3407
C 32.5753 21.8272 22.7043
C 32.5313 21.7133 25.9136
C 33.2591 23.0068 22.7057
H 33.6242 21.7217 25.867
C 32.575 24.2695 22.7207
C 32.5276 24.1925 25.9337
C 33.2563 25.4839 22.7173
H 33.6215 24.1896 25.888
H 34.3539 23.0173 22.6901
C 32.6261 29.2902 16.2745
C 32.5532 29.2612 19.5174
C 33.3111 30.5537 16.3105
H 33.6472 29.2638 19.5344
H 34.4023 28.0742 16.312
C 32.5749 29.1746 22.7241
C 32.5277 29.1491 25.9425
C 33.2593 30.4371 22.7132
H 33.6215 29.152 25.8976
H 34.3524 27.9603 22.7049
C 32.6256 26.8349 16.2615
C 32.5529 26.7839 19.5072
C 33.3068 28.0745 16.2792
H 34.4024 25.5961 16.31
C 32.5752 26.7221 22.7259
C 32.5285 26.6708 25.941
C 33.2563 27.9602 22.7183
H 34.3524 25.4841 22.7039
H 22.1226 37.6357 16.3544
H 23.5283 37.5768 19.5685
H 22.0717 37.5173 22.7066
H 23.4911 37.4714 25.8932
C 24.0434 36.6931 16.3241
C 24.0833 36.6348 19.5484
H 24.597 37.635 16.3744
C 25.4468 36.6365 19.5564
C 26.1876 35.4499 16.3079
C 26.1977 35.4126 19.5367
H 26.731 36.3989 16.3571
C 27.5901 35.3952 19.5482
H 26.0032 37.5788 19.5827
C 23.9918 36.5726 22.7239
C 24.0446 36.5291 25.9386
H 24.5471 37.5145 22.7117
C 25.4089 36.529 25.9499
C 26.1342 35.3275 22.7365
C 26.1603 35.3043 25.9798
H 26.6788 36.2766 22.7269
C 27.5536 35.2855 25.9774
H 25.9649 37.4711 25.9167
H 30.2826 35.1053 19.5729
H 30.2479 34.9942 25.95
H 28.1375 36.3444 19.573
H 28.1006 36.2344 25.9504
C 30.4797 32.971 16.307
C 30.4451 32.9593 19.5361
H 31.0294 33.9164 16.356
C 31.8805 32.9207 19.5552
C 30.4261 32.8494 22.7349
C 30.4128 32.8483 25.9792
H 30.9755 33.7954 22.7246
C 31.8494 32.8097 25.9486
C 28.334 34.2113 16.3038
C 28.3218 34.1863 19.5331
C 29.7344 34.1567 19.5482
C 28.2799 34.0883 22.7404
C 28.2863 34.0759 25.9898
C 29.7002 34.0457 25.9771
C 32.6286 31.7349 16.3209
C 32.56 31.7388 19.5461
H 33.1672 32.6858 16.3704
H 33.6531 31.7284 19.5655
H 34.4051 30.543 16.3484
H 32.418 33.8739 19.5816
C 32.5756 31.6167 22.7182
C 32.5315 31.6283 25.9364
H 33.1129 32.5689 22.7054
H 33.6243 31.62 25.8903
H 34.354 30.4262 22.6963
H 32.3867 33.7626 25.9154
H 33.6221 26.6708 25.8981
H 19.2055 18.3472 25.8782
H 19.2053 34.9955 25.9022
H 14.4253 26.724 22.707
H 28.8261 35.0362 22.7315
H 33.6466 26.7841 19.5225
H 28.8259 18.4085 22.7015
H 19.2499 18.4662 19.5015
H 19.2491 35.0984 19.5282
H 28.8799 35.1588 16.3502
H 14.4468 26.8562 16.3243
H 28.8808 18.5123 16.3266
Li 16.7544 21.8061 14.4906
Li 15.4759 26.0578 17.8569
Li 32.1424 32.1424 27.7773
