602
592nano.out 0 0 0
C 22.7866 21.8379 16.7556
C 20.6205 23.0239 16.7231
C 22.1052 20.5882 16.6254
C 24.2078 21.8669 16.8255
C 19.9394 21.7754 16.586
C 19.8796 24.2376 16.7685
C 29.11 25.6765 16.8982
C 29.0561 28.1445 16.9113
C 28.4253 24.4283 16.8937
C 20.4495 30.421 16.8826
C 22.561 31.7038 16.892
C 19.7653 29.1725 16.8811
C 28.3171 29.3623 16.9088
C 23.9848 31.737 16.9026
C 24.9505 20.6464 16.8022
C 22.044 23.0544 16.7949
C 18.4529 24.2061 16.6955
C 27.0583 21.9259 16.8643
C 28.3708 26.8955 16.9408
C 18.3931 26.6706 16.8002
C 21.8746 30.4552 16.9295
C 20.6834 20.5617 16.5213
C 29.1659 23.2078 16.8271
C 26.3158 23.1471 16.9038
C 19.8211 26.7037 16.8694
C 26.1509 30.5505 16.9284
C 18.3379 29.1387 16.8058
C 30.5379 25.7079 16.8399
C 26.8382 31.802 16.8431
C 30.4847 28.174 16.8563
C 19.7102 31.6418 16.8025
C 29.0037 30.6135 16.8233
C 26.8902 29.3333 16.9507
C 24.7254 30.5194 16.9508
C 21.8196 32.9238 16.8082
C 24.6734 32.9884 16.8231
C 24.892 23.116 16.8922
C 26.9997 24.3957 16.9275
C 20.5609 25.4871 16.8595
C 20.5037 27.9527 16.9151
C 26.3721 20.6774 16.8368
C 17.7129 25.4209 16.7265
C 22.8483 19.3716 16.6043
C 28.4814 21.9601 16.8277
C 18.5155 21.7479 16.508
C 17.6562 27.8893 16.7776
C 24.2628 19.3987 16.7164
C 17.7757 22.9561 16.5738
C 31.2228 26.9558 16.8289
C 28.2636 31.8282 16.7839
C 26.0965 33.0181 16.7913
C 20.3964 32.8889 16.7635
C 26.9445 26.8645 16.9704
C 22.6138 29.2368 16.9697
C 22.7261 24.3023 16.8839
C 30.5908 23.2453 16.7512
C 31.2738 24.4873 16.7576
C 17.6035 30.3602 16.7365
C 18.2849 31.6046 16.7271
C 31.1685 29.425 16.7849
C 26.2048 28.0828 16.9836
C 24.0392 29.2696 16.9842
C 30.4315 30.6364 16.7571
C 26.2593 25.6149 16.9634
C 21.9289 27.9864 16.9605
C 22.5099 34.1716 16.7362
C 21.9852 25.5197 16.9103
C 24.1505 24.3338 16.9206
C 23.9289 34.2037 16.7449
C 19.9974 19.3055 16.3736
C 24.779 28.0511 16.9918
C 22.6689 26.7688 16.9594
C 24.8344 25.5836 16.9621
C 22.1528 18.1169 16.4765
C 17.8369 20.4848 16.375
C 27.122 19.4465 16.8098
C 29.2273 20.7266 16.7717
C 16.2731 25.3894 16.6609
C 25.0184 18.1706 16.7177
C 16.216 27.8539 16.705
C 16.3362 22.9323 16.5069
C 24.0942 26.8014 16.9808
C 32.6619 26.9862 16.765
C 20.7598 18.1092 16.3433
C 18.582 19.3023 16.308
C 19.6516 34.1164 16.662
C 31.3287 22.0094 16.6606
C 28.9544 33.0904 16.6669
C 26.7917 34.2777 16.6806
C 32.7129 24.5287 16.6828
C 16.1636 30.3176 16.6602
C 32.6089 29.4449 16.7225
C 17.5476 32.8392 16.6325
C 21.7556 35.3944 16.6387
C 31.1156 31.9008 16.6413
C 24.6303 35.4593 16.6484
C 26.4091 18.2163 16.7827
C 15.622 24.1275 16.5738
C 33.3715 25.7608 16.7015
C 28.5309 19.5031 16.7939
C 33.3197 28.2401 16.729
C 30.6467 20.7941 16.6907
C 15.5614 26.6054 16.6744
C 22.9293 16.9009 16.5191
C 18.2353 34.0547 16.6077
C 20.3582 35.3438 16.6117
C 15.5077 29.0871 16.6666
C 16.3959 20.4883 16.3176
C 24.2903 16.9271 16.6449
C 15.6838 21.6523 16.38
C 30.3771 33.084 16.6064
C 28.2022 34.281 16.6276
C 26.026 35.4735 16.6286
H 20.2369 17.1434 16.2422
H 18.0524 18.3371 16.2263
C 33.4264 23.2797 16.5792
C 32.7667 22.0827 16.567
C 33.2691 30.7231 16.6268
C 15.4509 31.57 16.5868
C 16.1085 32.7692 16.5667
C 32.5584 31.8895 16.5824
C 22.4813 36.638 16.5669
C 23.8496 36.6678 16.5714
H 34.4223 28.2641 16.6815
H 34.4741 25.7858 16.6492
H 26.9827 17.2737 16.79
H 22.3919 15.9397 16.4687
H 15.8763 19.52 16.2205
H 14.5195 24.1018 16.5451
H 19.7858 36.2846 16.537
H 17.6649 34.9971 16.5347
H 31.2191 19.8514 16.6457
H 14.4037 29.0619 16.6399
H 24.8665 15.9879 16.6879
H 29.1045 18.5608 16.7776
H 14.5818 21.637 16.3328
H 14.4585 26.5806 16.6528
H 30.9069 34.0501 16.5312
H 26.5566 36.4388 16.5644
H 34.5278 23.3148 16.5148
H 33.3275 21.1349 16.4961
H 28.7318 35.2468 16.5588
H 34.3727 30.7354 16.5839
H 15.5452 33.7154 16.5018
H 14.3491 31.5354 16.5491
H 21.9028 37.5747 16.502
H 33.0787 32.8602 16.5069
H 24.3879 37.6282 16.5149
C 23.5102 20.5919 19.8517
C 19.174 22.9487 19.7721
C 21.3409 21.7733 19.7879
C 22.0959 20.5631 19.7423
C 26.3607 20.6611 19.965
C 19.9175 21.7403 19.7088
C 25.6138 21.8804 19.9701
C 28.4609 21.9455 19.9435
C 24.1892 21.8461 19.9327
C 27.7195 23.1655 19.9788
C 19.1014 25.4206 19.9153
C 19.8488 24.2051 19.891
C 24.2644 19.3743 19.8697
C 19.0332 27.8812 19.9594
C 17.6708 25.3769 19.8556
C 28.4014 24.4163 19.9816
C 27.7841 20.6956 19.9622
C 17.6095 27.824 19.8458
C 29.83 24.4541 19.924
C 17.7456 22.9161 19.6834
C 26.2932 23.1314 19.9947
C 19.7132 29.1375 20.0059
C 25.6793 19.4086 19.9419
C 22.0188 23.026 19.9027
C 19.78 26.6691 19.9773
C 18.9692 30.357 19.9498
C 29.8896 21.9841 19.8471
C 29.7756 26.9144 19.9989
C 28.3455 26.8827 20.028
C 28.2891 29.3487 20.0197
C 16.9218 26.5815 19.821
C 23.9425 31.7194 20.0419
C 21.8245 30.432 20.0564
C 30.5681 23.2336 19.8104
C 16.9934 24.1207 19.7664
C 27.5461 30.5715 20.0074
C 23.4435 23.062 19.9489
C 25.3738 31.7573 20.0257
C 21.2723 24.2422 19.9409
C 21.0784 31.6498 19.9991
C 26.1164 30.5388 20.0465
C 27.6599 25.6338 20.0228
C 30.5155 25.696 19.9461
C 21.1398 29.1796 20.0545
C 29.7195 29.3756 19.9695
C 27.6034 28.1021 20.0476
C 23.2549 30.4712 20.0708
C 21.416 19.3001 19.5782
C 16.8611 29.0549 19.8073
C 23.1925 32.9342 19.9715
C 19.2347 20.4787 19.5575
C 17.5385 30.3063 19.8386
C 19.6485 31.6063 19.949
C 30.4616 28.1617 19.9772
C 21.7718 32.8949 19.9337
C 25.5489 24.3501 20.0119
C 21.2065 26.7102 20.0192
C 25.4297 29.2877 20.0715
C 23.5803 18.117 19.8035
C 28.5359 19.4634 19.9512
C 28.2299 31.8195 19.8992
C 26.2315 25.6002 20.034
C 26.0629 33.0048 19.9304
C 21.8897 27.9637 20.0539
C 24.0018 29.2521 20.0773
C 26.1727 28.0687 20.0625
C 24.1241 24.3151 19.9989
C 21.9539 25.4945 20.0009
C 17.0751 21.6486 19.5033
C 20.0034 19.2907 19.487
C 26.4361 18.1851 19.9594
C 22.1846 18.1047 19.6507
C 30.4074 30.6249 19.8545
C 30.631 20.7426 19.7923
C 17.8291 20.4623 19.4688
C 23.8876 34.1897 19.8813
C 23.3165 28.0019 20.0642
C 25.4882 26.8186 20.0515
C 15.4804 26.5409 19.7318
C 23.3794 25.532 20.0181
C 31.9602 25.7345 19.8962
C 27.4868 33.0402 19.8396
C 24.061 26.7841 20.0476
C 32.0155 23.2848 19.7059
C 15.5575 24.0897 19.7279
C 29.6693 31.8444 19.8086
C 29.9509 19.5246 19.8833
C 15.4215 29.019 19.6974
C 25.3127 34.2266 19.8644
C 31.9074 28.1909 19.9363
C 27.8377 18.2376 19.9754
C 18.8976 32.839 19.8491
C 16.7988 31.5364 19.7127
C 21.0158 34.1236 19.7862
C 24.3512 16.9101 19.8593
C 14.759 27.766 19.643
C 32.6727 24.5158 19.7811
C 14.8311 25.2864 19.7426
C 32.618 26.975 19.9222
C 25.7198 16.9421 19.9315
C 15.6325 21.6456 19.479
C 17.4895 32.7731 19.7484
C 32.0696 20.8208 19.6626
C 19.5985 34.0668 19.8112
C 31.8552 30.6418 19.7877
H 19.4703 18.3372 19.2955
H 21.68 17.1241 19.5266
C 32.7284 22.0312 19.5978
C 23.1295 35.4131 19.7919
H 17.3068 19.4978 19.3513
C 32.5674 29.4357 19.8681
C 14.9109 22.8125 19.6272
C 21.7152 35.3562 19.7758
H 30.525 18.5827 19.8512
C 14.7056 30.2596 19.6894
C 15.3658 31.4691 19.6815
H 28.4113 17.2946 19.9703
C 28.1757 34.3107 19.6569
H 23.8109 15.9497 19.8167
H 13.6629 27.7432 19.5167
C 30.352 33.1119 19.6607
C 26.0145 35.4829 19.7519
H 33.7741 24.5441 19.7254
H 15.1154 20.681 19.3405
H 13.7287 25.2497 19.7109
H 33.7204 27.0001 19.8817
H 26.3034 16.0046 19.9448
H 32.6367 19.8771 19.6066
H 16.92 33.7084 19.6057
H 19.028 34.9976 19.6372
H 33.8257 22.0659 19.5098
H 33.6692 29.4589 19.8278
H 13.8083 22.7849 19.609
H 13.6036 30.2306 19.6598
C 32.5112 31.9146 19.656
H 21.1503 36.2895 19.6052
C 23.8475 36.6486 19.718
H 14.8028 32.4164 19.6161
C 27.4218 35.5011 19.6756
C 29.6014 34.3138 19.6079
C 31.7927 33.1006 19.605
C 25.2376 36.6837 19.7105
H 33.6124 31.9302 19.6127
H 23.2685 37.5823 19.6531
H 27.9414 36.4664 19.5594
H 30.1309 35.2674 19.4454
H 32.3164 34.0646 19.4991
H 25.7666 37.6461 19.6362
H 15.5321 19.6998 23.4415
H 21.9596 15.9164 23.1098
H 17.663 18.4385 23.2916
H 19.8169 17.1749 23.3696
H 24.4481 15.9119 23.0008
H 14.3102 21.8757 23.5391
C 22.5202 16.8665 23.0937
C 16.0863 20.651 23.3732
H 33.0343 20.7709 23.5549
C 18.2262 19.3853 23.2389
C 20.367 18.1254 23.2481
C 23.8903 16.8627 23.0287
H 26.5865 17.1299 23.0544
H 34.3067 22.8937 23.2955
C 15.4077 21.8558 23.4347
H 34.4186 30.3206 23.2176
H 14.3293 24.356 23.4471
H 14.3931 31.7664 23.6219
H 28.7302 18.34 23.1739
H 30.8689 19.5499 23.4155
H 15.6569 33.9143 23.7788
H 14.3579 26.8019 23.5801
H 34.3829 27.8447 23.0607
H 22.1665 37.5679 23.8758
H 33.2139 32.4645 23.55
H 14.3675 29.2986 23.5655
H 34.3469 25.3668 23.0956
C 17.5227 20.5994 23.2666
C 21.7798 18.0979 23.1563
H 24.6457 37.5416 23.8833
C 19.6371 19.3491 23.2037
H 19.9883 36.3457 23.9894
C 32.5033 21.7311 23.4531
C 33.2042 22.9058 23.3021
H 17.8161 35.1318 23.8689
C 26.041 18.0885 23.0438
C 33.3169 30.333 23.2481
C 15.4293 24.3442 23.3703
H 31.0743 33.7355 23.7402
C 15.4944 31.7666 23.5811
C 24.6453 18.0831 23.0323
H 26.7931 36.2877 23.826
H 28.9188 34.9955 23.9237
C 16.1043 23.1133 23.3574
C 16.1973 32.9601 23.665
C 28.1893 19.3008 23.1402
C 32.6495 31.5269 23.4261
C 30.3312 20.5107 23.3473
C 22.7056 36.6138 23.7778
C 15.4552 26.8067 23.4324
C 33.2784 27.8589 23.0747
C 15.4686 29.2811 23.4461
C 33.2426 25.3823 23.102
C 24.0844 36.5995 23.7833
C 26.7842 19.2934 23.0754
C 31.0563 21.7065 23.4144
C 20.5213 35.4032 23.7886
C 28.9219 20.5004 23.2044
C 16.1261 25.5641 23.3371
C 32.539 24.1812 23.1949
C 18.3619 34.1846 23.7238
C 22.5088 19.3382 23.0766
C 32.6109 29.0889 23.1537
C 18.2442 21.8472 23.2011
C 16.1669 30.5081 23.4771
C 23.9931 26.7477 23.0778
C 16.1494 28.0369 23.45
C 20.3716 20.5932 23.1166
C 32.5755 26.6346 23.0784
C 24.7188 27.9772 23.0981
C 30.5094 32.8062 23.5472
C 22.567 26.7586 23.082
C 24.6937 25.5052 23.062
C 23.9264 19.3298 23.0368
C 17.6339 32.9875 23.6336
C 26.2342 35.3409 23.6753
C 21.9369 35.407 23.7031
C 17.5453 23.0883 23.2461
C 28.3691 34.075 23.6617
C 31.211 31.5778 23.4826
C 24.019 29.2186 23.1311
C 26.1472 27.9629 23.0992
C 21.8433 25.5285 23.0609
C 23.9702 24.2766 23.0447
C 19.771 34.195 23.6899
C 21.8659 27.9993 23.1228
C 26.1199 25.4925 23.0699
C 24.8163 35.3707 23.6967
C 21.7981 20.5822 23.0723
C 19.6737 21.8323 23.1078
C 22.5437 24.2873 23.04
C 22.5918 29.2277 23.1532
C 26.8462 26.7197 23.086
C 26.0735 20.5483 23.0581
C 29.0846 32.8558 23.5393
C 17.5644 25.5551 23.236
C 28.2197 21.7615 23.1509
C 30.3663 22.9743 23.2687
C 26.9502 34.126 23.5647
C 31.0971 24.19 23.1917
C 24.6519 20.5602 23.031
C 24.6714 23.0325 23.0394
C 20.4154 25.538 23.0833
C 18.2654 24.3245 23.1723
C 17.592 28.0307 23.3194
C 26.8197 24.2481 23.0764
C 20.4367 28.0076 23.1575
C 26.8769 29.1896 23.1364
C 21.82 23.0562 23.0353
C 26.7975 21.7751 23.0819
C 24.7475 30.4486 23.1743
C 17.6072 30.5028 23.4275
C 31.1705 29.1199 23.1777
C 22.5225 21.815 23.0333
C 20.3947 23.0662 23.0635
C 26.0959 23.0202 23.0629
C 23.9486 21.8039 23.0278
C 31.1327 26.6573 23.0929
C 19.7132 26.7792 23.1403
C 18.3342 31.729 23.4869
C 19.6945 24.3092 23.0927
C 18.2853 26.7884 23.2201
C 28.9407 22.9854 23.1717
C 28.2744 26.7018 23.0937
C 26.1782 30.4332 23.1844
C 22.6513 34.1684 23.526
C 21.8883 30.4657 23.2315
C 30.4758 30.3561 23.2979
C 18.3077 29.2542 23.3127
C 28.2445 24.2325 23.1102
C 30.4015 25.4376 23.115
C 20.4863 32.9445 23.4884
C 19.7329 29.2429 23.2435
C 30.4359 27.8997 23.1141
C 28.9731 25.4564 23.1047
C 24.0751 34.1503 23.5168
C 28.3058 29.1681 23.1505
C 29.0046 27.9239 23.115
C 20.4615 30.4685 23.3051
C 24.0466 31.6875 23.2497
C 19.7659 31.7155 23.4081
C 28.3432 31.6271 23.3407
C 22.6152 31.6968 23.28
C 26.207 32.8955 23.3859
C 21.9162 32.9381 23.4149
C 26.9109 31.6557 23.2873
C 29.0401 30.3909 23.2492
C 24.7827 32.9129 23.3595
H 23.3766 15.895 26.161
H 14.8432 20.9269 26.5803
H 25.8615 15.8721 26.1934
H 32.3208 19.5363 26.5708
H 33.5861 21.6774 26.5397
H 13.6168 23.0881 26.6231
H 14.9426 32.6626 26.8082
H 13.6775 30.5266 26.7202
H 19.1075 18.4113 26.2789
H 21.2468 17.1531 26.1942
H 16.9732 19.6722 26.4192
H 33.6433 26.6252 26.2533
H 19.2619 35.0951 26.8413
H 33.6933 31.5698 26.5516
H 23.5768 37.522 26.9761
H 33.6147 24.1452 26.3548
H 17.1007 33.8767 26.8188
H 28.0126 17.098 26.2827
H 30.1676 18.3207 26.4259
H 33.6666 29.1054 26.3333
H 32.4671 33.7269 26.7469
H 21.4225 36.3089 26.888
H 26.0548 37.4957 26.9913
H 13.6576 28.0487 26.614
H 13.6374 25.5653 26.5813
C 23.944 16.8398 26.1767
C 25.3111 16.8276 26.1914
C 15.3929 21.8815 26.5295
C 31.788 20.4999 26.5028
C 14.7177 23.0712 26.5535
C 32.4838 21.6771 26.4877
C 14.7796 30.5243 26.68
C 15.4778 31.702 26.7299
H 30.3273 34.9753 26.8416
H 28.1879 36.2336 26.9185
C 21.806 18.1047 26.1975
C 19.6664 19.363 26.2669
C 17.5308 20.6237 26.3856
C 32.5891 31.5901 26.5445
C 24.1181 36.5681 26.898
C 31.9164 32.7743 26.6498
C 27.4682 18.0575 26.2563
C 25.4934 36.554 26.9028
C 29.6247 19.2804 26.3799
C 32.5109 24.1562 26.3345
C 32.54 26.6351 26.251
C 17.6423 32.919 26.7315
C 19.8023 34.1373 26.7507
C 14.7403 25.557 26.5277
C 14.7614 28.0412 26.5674
C 32.563 29.1134 26.3322
C 21.9622 35.3516 26.7999
C 23.1989 18.0761 26.1794
C 26.0729 18.0512 26.2028
C 16.8304 21.8298 26.4311
C 30.3492 20.4757 26.4104
C 15.4141 24.3316 26.493
C 31.8126 22.9506 26.39
C 15.455 29.2534 26.5838
C 21.0738 19.3263 26.2169
C 16.9181 31.7296 26.6732
C 18.9495 20.5779 26.3008
C 28.2109 19.2646 26.2874
C 29.7672 34.0286 26.7377
C 27.6255 35.2887 26.8155
C 15.4339 26.7927 26.5058
C 23.9938 26.7223 26.1452
C 31.8901 30.3319 26.4239
C 31.8426 25.4109 26.2688
C 23.3542 35.3537 26.7858
C 19.063 32.9413 26.6749
C 31.8681 27.8737 26.2687
C 21.2087 34.1493 26.7064
C 30.4722 32.8265 26.6329
C 26.23 35.3226 26.7937
C 23.2925 27.9625 26.1844
C 25.4196 26.7083 26.1477
C 23.27 25.4948 26.1323
C 28.3488 34.0726 26.7136
C 24.0166 29.1888 26.2264
C 26.1441 27.9344 26.1805
C 23.9367 19.3143 26.1595
C 21.867 27.9752 26.211
C 26.1214 25.4679 26.1412
C 25.3549 19.3009 26.1739
C 17.5502 23.076 26.3635
C 21.8448 25.5074 26.1528
C 23.972 24.2544 26.12
C 16.8513 24.3107 26.4037
C 29.6505 21.7338 26.3348
C 30.3721 22.955 26.3269
C 16.8946 29.2523 26.5103
C 17.6166 30.4737 26.5432
C 25.4425 29.1749 26.2257
C 21.1432 26.7475 26.1958
C 25.3975 24.2405 26.131
C 27.5031 20.517 26.2351
C 21.8055 20.5684 26.1766
C 19.6768 21.8218 26.2451
C 30.4474 30.3557 26.3993
C 16.871 26.7822 26.4235
C 24.0686 34.1101 26.6481
C 30.4006 25.4234 26.2374
C 29.7476 31.5871 26.4961
C 19.7671 31.6898 26.5291
C 25.4885 34.0953 26.655
C 30.4258 27.8902 26.2482
C 21.9168 32.902 26.5573
C 21.1664 29.2156 26.2913
C 23.3155 30.4288 26.3089
C 27.5709 27.9192 26.1994
C 27.5476 25.4539 26.1679
C 21.1218 24.2786 26.1654
C 26.0805 20.5289 26.1751
C 23.2484 23.0259 26.125
C 23.2285 20.5537 26.1491
C 18.9742 23.0596 26.2718
C 28.2263 21.7433 26.251
C 17.5702 25.5422 26.3564
C 17.5917 28.0098 26.4125
C 21.1001 21.807 26.1828
C 21.8908 30.4405 26.3427
C 29.6764 24.1986 26.2514
C 28.2721 26.6792 26.1849
C 21.8243 23.0391 26.1466
C 19.0415 30.4673 26.4682
C 27.6163 32.842 26.5662
C 19.7187 26.759 26.2523
C 29.7021 26.6645 26.2132
C 26.0995 22.9998 26.1489
C 21.1902 31.6813 26.4678
C 26.1672 30.3991 26.3061
C 29.7251 29.1294 26.2956
C 23.3392 32.8912 26.5246
C 23.9526 21.7853 26.1293
C 19.6971 24.2916 26.2233
C 19.7419 29.226 26.3514
C 28.2481 24.2122 26.1997
C 25.3762 21.772 26.145
C 18.9969 25.5306 26.2694
C 27.5243 22.9868 26.1964
C 19.0188 27.9994 26.3307
C 24.0407 31.652 26.3961
C 28.32 31.6069 26.4578
C 26.1928 32.8605 26.5307
C 28.2955 29.145 26.2653
C 25.4654 31.637 26.3992
C 27.5937 30.3824 26.3331
Li 31.5927 22.125 21.4656
Li 16.8485 31.9344 21.781
Li 16.5734 21.9511 21.5304
Li 24.5538 35.5678 21.5976
Li 31.27 31.9908 21.4691
Li 28.8358 33.9123 21.6221
Li 20.6384 34.7468 21.7287
Li 20.6552 18.1601 21.1883
Li 15.0128 28.0026 21.6962
Li 15.0791 24.8674 21.5605
