640
592nano.out 0 0 0
C 24.0572 26.8362 15.9752
C 24.0544 26.7727 19.1942
C 24.7685 28.0781 15.9679
C 25.488 26.7772 19.2086
C 26.2056 25.6062 15.9171
C 26.2058 25.5341 19.1766
C 26.9175 26.8474 15.9208
C 27.6366 25.5392 19.1462
C 24.0492 29.3134 15.9236
C 24.0537 29.2612 19.219
C 24.7598 30.5509 15.8399
C 25.4877 29.2643 19.2602
C 26.1979 28.0818 15.9456
C 26.1999 28.0198 19.2531
C 26.9085 29.3221 15.8839
C 27.6281 28.0247 19.2884
C 24.0226 26.7212 23.0858
C 24.0181 26.6784 26.2682
C 24.7414 27.9665 23.0569
C 25.4491 26.6777 26.2762
C 26.1776 25.4782 23.0713
C 26.162 25.4392 26.3119
C 26.8982 26.727 23.0532
C 27.5894 25.4388 26.3921
C 24.0235 29.2051 23.0708
C 24.0191 29.1541 26.3172
C 24.736 30.4437 23.0087
C 25.4488 29.1546 26.3142
C 26.172 27.9703 23.0212
C 26.1631 27.9164 26.298
C 26.8846 29.2023 22.9668
C 27.5904 27.9171 26.3627
C 30.488 25.6268 15.6098
C 30.484 25.5501 19.289
C 31.2019 26.8698 15.5914
C 31.9167 25.5541 19.2951
C 30.4936 25.4864 23.0259
C 30.4196 25.4395 26.7105
C 31.2064 26.7313 22.9962
C 31.8512 25.4428 26.9053
C 28.3458 26.8537 15.8385
C 28.3467 26.7896 19.2447
C 29.0531 28.0946 15.7912
C 29.7776 26.7943 19.3071
C 28.3314 26.7302 23.0259
C 28.301 26.6771 26.4256
C 29.0454 27.9706 22.9477
C 29.7229 26.6766 26.5844
C 30.4926 23.1588 15.4585
C 30.511 23.069 19.2794
C 31.2055 24.3881 15.4749
C 31.9582 23.0715 19.3273
C 30.4873 23.0067 22.9744
C 30.4319 22.9652 26.7954
C 31.2079 24.2406 23.0317
C 31.8595 22.9655 26.9701
C 28.3507 24.3833 15.7292
C 28.3572 24.2872 19.2058
C 29.0618 25.6201 15.7434
C 29.7863 24.3008 19.257
C 28.34 24.2434 23.0232
C 28.2991 24.1994 26.4937
C 29.0618 25.4844 23.0304
C 29.7194 24.205 26.6543
C 30.4688 30.5739 15.5842
C 30.4872 30.5062 19.4311
C 31.173 31.8247 15.4561
C 31.9312 30.5063 19.4499
C 30.466 30.4402 22.8163
C 30.4459 30.3903 26.6325
C 31.1937 31.6821 22.7796
C 31.8859 30.383 26.7556
C 24.0387 34.244 15.3876
C 24.0407 34.2211 19.1701
C 24.7574 35.4829 15.2281
C 25.4776 34.2273 19.168
C 26.1772 33.0124 15.5235
C 26.2028 32.9858 19.242
C 26.9024 34.2637 15.3513
C 27.6431 32.9811 19.3116
C 24.0214 34.1642 22.9405
C 24.0287 34.0901 26.7248
C 24.7503 35.4263 22.9227
C 25.4519 34.0919 26.7339
C 26.1644 32.9145 22.9695
C 26.1639 32.858 26.6155
C 26.8779 34.1638 23.0535
C 27.5835 32.8626 26.68
C 28.327 31.7924 15.6516
C 28.352 31.738 19.3517
C 29.0425 33.0463 15.5369
C 29.7782 31.7432 19.3875
C 28.3049 31.6638 22.8954
C 28.2993 31.6286 26.5759
C 29.0256 32.902 22.9129
C 29.7383 31.6279 26.6347
C 30.4815 28.1014 15.664
C 30.4785 28.0321 19.3983
C 31.1905 29.3499 15.5704
C 31.9222 28.0454 19.4466
C 30.4783 27.9685 22.9088
C 30.4299 27.9166 26.654
C 31.187 29.2123 22.83
C 31.8669 27.9231 26.8513
C 24.0419 31.7825 15.7185
C 24.0576 31.7449 19.223
C 24.7555 33.0134 15.5513
C 25.4799 31.7378 19.2506
C 26.1889 30.5543 15.8229
C 26.1964 30.5018 19.2865
C 26.8998 31.7899 15.6833
C 27.6341 30.5047 19.3396
C 24.0109 31.6888 22.9955
C 24.0239 31.6236 26.4771
C 24.7318 32.9236 22.9572
C 25.4502 31.6265 26.474
C 26.1639 30.4387 22.9576
C 26.1628 30.3912 26.3901
C 26.8807 31.6794 22.9309
C 27.5904 30.3921 26.4392
C 28.3353 29.3258 15.8127
C 28.3417 29.27 19.352
C 29.0404 30.5687 15.7026
C 29.7684 29.2693 19.4041
C 28.3257 29.1999 22.9266
C 28.3034 29.1561 26.4256
C 29.0336 30.4335 22.8788
C 29.7278 29.153 26.5496
H 14.4508 21.8619 15.0969
H 14.9442 20.83 19.0774
H 14.341 21.7513 23.0432
H 14.9188 20.8058 26.8492
H 22.1425 15.9997 15.3098
C 22.6838 16.9491 15.3478
H 23.5288 15.8972 19.0907
H 22.0766 15.8376 23.0569
C 22.6198 16.7846 23.0595
H 23.4689 15.8626 26.9134
H 15.6825 19.6987 15.2429
C 16.2274 20.646 15.2755
H 17.1224 19.5974 19.2074
H 17.8346 18.4458 15.3598
C 18.3788 19.3927 15.4096
H 15.5894 19.5736 23.1201
C 16.1382 20.5149 23.0384
H 17.0686 19.5664 26.8692
H 17.7407 18.3211 23.1377
C 18.2898 19.2629 23.0593
H 19.9864 17.2229 15.2893
C 20.5253 18.1725 15.3574
H 21.3615 17.1622 19.1953
H 19.8867 17.0782 23.1467
C 20.4405 18.0185 23.0873
H 21.3235 17.11 26.9064
H 24.6335 16.0199 15.3621
H 24.5998 15.848 23.0502
H 13.6431 25.4957 19.0058
C 14.7341 25.5034 19.0691
H 13.6621 25.4342 27.0119
C 14.7527 25.4382 26.9239
H 13.6813 22.9885 18.9707
H 14.4477 24.3456 15.1149
C 14.7726 23.0022 19.039
H 13.667 22.9589 26.9261
H 14.3508 24.2508 22.9914
C 14.7595 22.9589 26.8829
H 13.6359 30.5131 19.1355
H 14.4031 31.7274 15.1337
C 14.7286 30.5083 19.1709
H 13.6764 30.3887 27.1091
H 14.3007 31.6456 23.3153
C 14.7682 30.3891 27.0462
H 13.6291 27.9948 19.0325
H 14.4228 29.2449 15.1617
C 14.7201 28.0035 19.1027
H 13.6594 27.9093 27.0259
H 14.3336 29.1333 23.0299
C 14.7499 27.9081 26.9442
C 15.5409 21.8566 15.1796
C 15.482 21.7819 19.1079
C 16.2207 23.1048 15.242
C 16.9066 21.7642 19.1626
C 17.6501 20.604 15.3802
C 17.6569 20.553 19.2224
C 18.3636 21.8651 15.4659
C 19.068 20.5533 19.3464
C 15.5378 24.344 15.2099
C 15.4278 24.239 19.0786
C 16.2225 25.5662 15.2328
C 16.8985 24.2566 19.1498
C 17.657 23.1001 15.4072
C 17.6249 23.0226 19.1917
C 18.3688 24.3407 15.5199
C 19.0549 23.035 19.2502
C 15.4339 21.7451 23.0143
C 15.4582 21.757 26.8434
C 16.1189 22.9852 22.9039
C 16.8795 21.7268 26.7967
C 17.5495 20.4764 22.9777
C 17.6111 20.5154 26.8172
C 18.2865 21.7454 22.9148
C 19.0135 20.5019 26.8537
C 15.4448 24.2396 22.9673
C 15.4378 24.2157 26.8688
C 16.1463 25.4605 23.0273
C 16.8805 24.2096 26.7527
C 17.5753 22.9903 22.916
C 17.5923 22.9786 26.727
C 18.2935 24.226 22.9361
C 19.0244 22.9794 26.6304
C 21.9346 20.6448 15.5813
C 21.9304 20.5718 19.2812
C 22.6412 21.8827 15.7126
C 23.3594 20.555 19.3161
C 21.8791 20.5008 22.9948
C 21.8845 20.5133 26.7195
C 22.5959 21.7487 22.9618
C 23.3036 20.5012 26.6295
C 19.7988 21.8678 15.5741
C 19.7822 21.8069 19.3001
C 20.5016 23.1084 15.7084
C 21.2098 21.8025 19.2939
C 19.7155 21.7471 22.9289
C 19.7379 21.7528 26.7053
C 20.4364 22.9898 22.9442
C 21.1637 21.7417 26.6134
C 21.9287 18.1608 15.3801
C 21.9267 18.0991 19.2384
C 22.6506 19.4105 15.4843
C 23.3488 18.0509 19.3059
C 21.8789 17.9794 23.0757
C 21.8752 18.0533 26.8414
C 22.6035 19.2634 23.0325
C 23.2936 18.0236 26.8901
C 19.7977 19.3696 15.3971
C 19.8002 19.3442 19.2707
C 20.517 20.6331 15.5096
C 21.2158 19.3222 19.1916
C 19.698 19.2343 23.0374
C 19.7474 19.2901 26.7884
C 20.4331 20.5051 22.9931
C 21.1584 19.2639 26.8747
C 21.9184 25.5897 15.899
C 21.8995 25.5256 19.2015
C 22.627 26.8311 15.9465
C 23.3374 25.5267 19.1437
C 21.8644 25.4708 23.0462
C 21.8739 25.4426 26.3298
C 22.5854 26.719 23.0797
C 23.3034 25.4406 26.2883
C 15.5127 29.2578 15.2611
C 15.3959 29.2736 19.1641
C 16.1847 30.5038 15.2868
C 16.8736 29.2668 19.1931
C 17.6517 28.0509 15.4499
C 17.5867 28.02 19.1983
C 18.345 29.2882 15.5549
C 19.0298 28.014 19.2281
C 15.4281 29.1642 23.0356
C 15.4409 29.1406 26.9608
C 16.0921 30.4178 23.1119
C 16.8816 29.1481 26.8365
C 17.5862 27.9499 23.0146
C 17.5954 27.9068 26.708
C 18.2805 29.2006 23.0475
C 19.0199 27.912 26.5484
C 19.7777 26.8193 15.7402
C 19.7454 26.7663 19.2271
C 20.4831 28.0623 15.8082
C 21.1725 26.7663 19.2172
C 19.7267 26.714 23.006
C 19.7309 26.6795 26.4553
C 20.4315 27.9586 23.0503
C 21.1594 26.6794 26.3546
C 21.9261 23.1146 15.7893
C 21.9167 23.0463 19.2684
C 22.6357 24.3546 15.8848
C 23.3488 23.0402 19.2625
C 21.8716 22.9826 22.9707
C 21.8756 22.9726 26.4535
C 22.5839 24.2209 23.0276
C 23.3043 22.9678 26.3978
C 15.532 26.8005 15.3221
C 15.4044 26.7552 19.1127
C 16.2107 28.0418 15.2604
C 16.8756 26.7615 19.1753
C 17.6641 25.5716 15.4254
C 17.6023 25.505 19.1829
C 18.3584 26.8131 15.5531
C 19.041 25.5162 19.2206
C 15.4589 26.6984 22.9284
C 15.4317 26.6652 26.8981
C 16.1447 27.9425 23.0009
C 16.8813 26.6704 26.7576
C 17.59 25.4693 22.9724
C 17.5944 25.4447 26.6625
C 18.2961 26.7085 22.9866
C 19.0177 25.4451 26.5214
C 19.7866 24.3422 15.6971
C 19.7571 24.285 19.2418
C 20.4925 25.5839 15.7971
C 21.1944 24.2811 19.2439
C 19.7272 24.223 22.9524
C 19.7326 24.2114 26.5013
C 20.437 25.4719 22.9979
C 21.1603 24.2075 26.4093
C 24.075 16.9601 15.3732
C 24.0808 16.8396 19.1331
C 24.8065 18.1792 15.4211
C 25.5051 16.838 19.1097
H 26.0522 15.8941 19.0358
H 26.7753 17.2703 15.343
C 24.0716 19.419 15.4911
C 24.0697 19.314 19.3243
C 24.7782 20.6644 15.5714
C 25.5034 19.3098 19.3279
C 26.2221 18.2129 15.4008
C 26.2351 18.0406 19.2454
C 26.9308 19.4255 15.373
C 27.6598 18.0862 19.1864
C 24.0444 16.7911 23.0126
C 24.0246 16.8042 26.8652
C 24.7711 18.02 23.004
C 25.4103 16.7929 26.7559
H 25.9513 15.8421 26.7465
H 26.7492 17.1251 22.8137
C 24.041 19.273 22.9869
C 24.0169 19.2609 26.7297
C 24.7441 20.5132 22.9263
C 25.4367 19.2488 26.6679
C 26.1884 18.0658 22.8464
C 26.1587 17.9955 26.7099
C 26.8911 19.2884 22.7774
C 27.5771 18.0123 26.6592
H 28.2169 17.1466 19.1197
H 28.118 17.0628 26.6965
C 30.4803 20.6971 15.4009
C 30.5436 20.5696 19.1604
C 31.2077 21.9159 15.3252
C 31.9522 20.6148 19.2416
C 30.4623 20.5402 22.9379
C 30.4463 20.4754 26.8541
C 31.2101 21.7535 22.9498
C 31.8599 20.5175 26.9468
C 24.0643 24.3605 15.9038
C 24.0603 24.2803 19.2044
C 24.7761 25.6009 15.9511
C 25.4947 24.2794 19.208
C 26.2085 23.1362 15.7651
C 26.2079 23.0441 19.2497
C 26.9223 24.3743 15.8216
C 27.6467 23.0505 19.2379
C 24.0253 24.226 23.0431
C 24.0179 24.2024 26.3164
C 24.7411 25.4756 23.0741
C 25.4477 24.2007 26.3259
C 26.1726 22.9981 22.973
C 26.16 22.9631 26.4039
C 26.8933 24.2378 23.0353
C 27.5865 22.9639 26.4876
C 28.3472 21.9235 15.4994
C 28.3642 21.8137 19.2482
C 29.0619 23.1526 15.5727
C 29.8043 21.8254 19.234
C 28.321 21.7821 22.9101
C 28.2985 21.7266 26.6117
C 29.0516 23.0094 22.9663
C 29.7288 21.7291 26.7597
H 30.3453 18.3992 18.8904
H 31.0277 19.7511 15.3355
H 30.277 18.3125 26.8201
H 30.9962 19.5833 22.9976
C 24.0661 21.8914 15.7139
C 24.0724 21.7997 19.3072
C 24.7808 23.128 15.8124
C 25.4964 21.8007 19.3035
C 26.201 20.6737 15.5162
C 26.2134 20.5515 19.319
C 26.9217 21.9059 15.6064
C 27.6496 20.563 19.253
C 24.0205 21.7502 22.9507
C 24.0188 21.7307 26.4749
C 24.7424 22.9905 22.9788
C 25.4443 21.7276 26.463
C 26.1734 20.5323 22.8619
C 26.1562 20.4887 26.5658
C 26.8901 21.7666 22.9079
C 27.5869 20.4848 26.6134
C 28.3475 19.4603 15.4346
C 28.3761 19.2962 19.1691
C 29.073 20.6729 15.3544
C 29.8019 19.3366 19.0295
C 28.3063 19.3191 22.9011
C 28.3127 19.2206 26.7007
C 29.0382 20.5434 22.8956
C 29.7263 19.2555 26.7684
H 32.5077 19.674 19.2126
H 33.1694 20.9994 15.2556
H 32.4089 19.5722 26.9851
H 33.1657 20.8286 22.9901
H 14.8996 32.6944 19.0858
H 14.9324 32.5333 27.1564
C 15.4938 31.7426 15.2089
C 15.4399 31.7429 19.1273
C 16.177 32.9634 15.2712
C 16.8656 31.7653 19.2157
C 17.6236 30.522 15.4469
C 17.5922 30.5074 19.2276
C 18.3244 31.7651 15.4845
C 19.0223 30.4956 19.2486
H 15.6233 33.9044 15.2163
H 17.0878 33.94 19.2504
C 17.5962 33.0187 15.3655
C 17.6152 32.9804 19.2175
C 18.3228 34.2402 15.3794
C 19.0367 32.9796 19.252
C 15.3883 31.6561 23.2192
C 15.4699 31.5825 27.0775
C 16.1031 32.9026 23.1467
C 16.8868 31.6126 27.0171
C 17.5506 30.4304 23.0753
C 17.5973 30.3759 26.8454
C 18.2679 31.6799 23.1033
C 19.0277 30.3797 26.6915
H 15.5485 33.8445 23.1679
H 17.0853 33.7765 27.1259
C 17.5162 32.9491 23.076
C 17.6165 32.8383 26.9177
C 18.2709 34.1727 22.9706
C 19.0309 32.8494 26.8975
C 21.9028 30.5434 15.8019
C 21.8964 30.4972 19.2221
C 22.6168 31.7788 15.7098
C 23.3366 30.5037 19.2139
C 21.8613 30.4499 23.0905
C 21.8774 30.3859 26.4646
C 22.5875 31.6899 23.0286
C 23.3066 30.3884 26.4003
C 19.7581 31.7726 15.6017
C 19.7552 31.7277 19.2613
C 20.4724 33.0143 15.5329
C 21.1848 31.7407 19.2549
C 19.7004 31.687 23.1048
C 19.7457 31.6044 26.7324
C 20.4308 32.9307 23.0705
C 21.1668 31.6165 26.6208
C 21.9083 28.0675 15.9072
C 21.8909 28.0114 19.2053
C 22.6188 29.3097 15.8977
C 23.3332 28.0125 19.2066
C 21.8623 27.9623 23.0886
C 21.8741 27.9157 26.339
C 22.5792 29.2077 23.1407
C 23.3033 27.9162 26.2913
C 19.7672 29.2993 15.7198
C 19.7315 29.2481 19.2402
C 20.4731 30.538 15.7303
C 21.1745 29.2545 19.2197
C 19.7146 29.207 23.064
C 19.7332 29.1477 26.5373
C 20.4241 30.443 23.0864
C 21.1603 29.1512 26.4277
C 21.8916 35.4958 15.3281
C 21.8942 35.4411 19.2564
C 22.6322 36.7042 15.2767
C 23.3154 35.4824 19.1236
C 21.8579 35.4401 23.0024
C 21.8892 35.3029 26.8756
C 22.5987 36.6418 23.0486
C 23.3044 35.3334 26.8324
H 19.9323 36.426 15.3275
H 21.3378 36.3829 19.2758
H 19.8903 36.3539 23.078
H 21.3415 36.2465 26.9649
C 21.9012 33.0117 15.5565
C 21.9051 32.9697 19.2596
C 22.6185 34.249 15.4082
C 23.3328 32.9838 19.2148
C 21.8684 32.9312 22.9973
C 21.8908 32.8477 26.7051
C 22.5871 34.1679 22.9538
C 23.3113 32.8532 26.6179
H 17.7747 35.1813 15.2866
H 17.7353 35.1221 22.8722
C 19.7402 34.2728 15.4056
C 19.7702 34.1967 19.258
C 20.475 35.4785 15.3847
C 21.1862 34.2211 19.3304
C 19.7049 34.1994 23.0388
C 19.755 34.0683 26.8679
C 20.434 35.4053 23.0615
C 21.1791 34.0959 26.8917
C 32.6278 21.9492 15.31
C 32.6439 21.8378 19.3424
C 33.3255 23.1499 15.3455
H 33.7352 21.842 19.3927
C 32.6514 24.3959 15.3873
C 32.6327 24.3277 19.2995
C 33.3412 25.6356 15.4347
H 33.7287 24.3476 19.2596
H 34.4192 23.1506 15.3226
C 32.6217 21.776 22.9937
C 32.5424 21.7246 27.0058
C 33.3306 22.988 23.0705
H 33.6336 21.7343 27.0932
C 32.6643 24.2327 23.086
C 32.5508 24.2129 26.9202
C 33.3732 25.4966 23.1119
H 33.6284 24.222 27.1322
H 34.424 22.9765 23.1092
C 32.6307 29.3521 15.4727
C 32.6115 29.2638 19.4425
C 33.3001 30.6066 15.44
H 33.7057 29.2609 19.4654
H 34.4226 28.1317 15.4226
C 32.6367 29.221 22.847
C 32.5629 29.1389 26.8204
C 33.3092 30.4559 22.8046
H 33.6517 29.1345 26.927
H 34.4247 28.0006 23.0393
C 32.658 26.8751 15.479
C 32.6081 26.8046 19.2579
C 33.3308 28.1203 15.4819
H 34.4332 25.6361 15.3849
C 32.6629 26.7511 23.0577
C 32.5457 26.6761 26.8899
C 33.3316 27.9849 22.9946
H 34.468 25.4979 23.0877
H 22.083 37.6503 15.2705
H 23.493 37.6413 19.1283
H 22.0612 37.5908 23.1067
H 23.4864 37.4897 26.9336
C 24.0157 36.6994 15.2198
C 24.0455 36.6983 19.1484
H 24.5687 37.6425 15.1701
C 25.4672 36.7045 19.1301
C 26.1694 35.4707 15.3185
C 26.2055 35.5029 19.1443
H 26.7133 36.4177 15.2441
C 27.6366 35.464 19.1758
H 26.0053 37.6545 19.129
C 24.0157 36.6397 23.0223
C 24.04 36.5477 26.8967
H 24.5659 37.5841 23.0313
C 25.4327 36.5504 26.9159
C 26.1741 35.3859 23.0016
C 26.1789 35.3358 26.8655
H 26.7326 36.3279 23.0246
C 27.583 35.3174 26.896
H 25.9804 37.4948 26.9726
H 30.3299 35.1637 19.0499
H 30.2726 35.0407 26.8743
H 28.1817 36.4107 19.1197
H 28.125 36.2636 26.9879
C 30.4463 33.0325 15.5147
C 30.5114 32.9972 19.3167
H 30.9868 33.9813 15.4365
C 31.9238 32.9585 19.3793
C 30.4488 32.8923 22.9896
C 30.4571 32.8848 26.7488
H 30.986 33.8497 23.0652
C 31.8816 32.8406 26.7824
C 28.3094 34.2483 15.4285
C 28.3777 34.2494 19.2426
C 29.7851 34.2252 19.1911
C 28.3012 34.1319 22.9536
C 28.3075 34.1203 26.8242
C 29.7273 34.096 26.7978
C 32.5999 31.7964 15.4316
C 32.6177 31.7438 19.4377
H 33.1336 32.7509 15.3861
H 33.7093 31.7365 19.4606
H 34.3938 30.6103 15.4038
H 32.4734 33.9033 19.3368
C 32.6021 31.6593 22.7706
C 32.5704 31.6263 26.8093
H 33.1409 32.6113 22.7437
H 33.6615 31.6176 26.8719
H 34.4024 30.4595 22.8147
H 32.4291 33.7849 26.8389
H 33.6235 26.6772 27.1015
H 19.2017 18.343 26.851
H 19.2172 35.0013 27.0836
H 14.364 26.6995 22.9507
H 28.8581 35.0741 23.065
H 33.7058 26.8033 19.2311
H 28.8552 18.3694 22.9367
H 19.2548 18.3948 19.2453
H 19.2191 35.1425 19.2927
H 28.8519 35.1943 15.3385
H 14.4418 26.7963 15.2193
H 28.8979 18.5157 15.3716
Li 31.2579 31.7597 17.5431
Li 16.0303 22.9876 24.9774
Li 23.3071 18.0411 17.2423
Li 24.7899 35.4941 24.9935
Li 31.895 22.8319 24.8796
Li 16.5508 31.7241 17.1444
Li 27.1771 34.0375 17.3911
Li 21.3489 34.4794 17.2664
Li 31.8611 28.1983 24.7777
Li 15.9394 27.942 25.0375
Li 18.8415 20.6015 24.8143
Li 29.2859 20.4458 24.9203
Li 19.1043 20.4132 17.2891
Li 26.7116 19.2292 17.4146
Li 21.1497 19.2704 24.8469
Li 26.8089 19.0854 24.8264
Li 28.9998 33.1198 24.9254
Li 21.2902 34.2245 24.8476
Li 16.1545 28.1761 17.3041
Li 16.1652 25.4175 17.2772
Li 16.7167 31.6201 24.9641
Li 32.0948 28.2542 17.3829
Li 28.9729 20.6193 17.3761
Li 32.1122 25.4485 17.2902
Li 24.7089 35.6303 17.2917
Li 31.4215 31.6361 24.8677
Li 16.6094 21.9326 17.125
Li 23.5348 17.8233 24.856
Li 31.4821 21.9169 17.4062
Li 19.0728 32.9081 21.2541
Li 16.0602 25.3363 20.9659
Li 18.4993 33.8201 25.0515
Li 26.812 34.3073 21.0231
Li 21.1088 19.153 21.2258
Li 32.6786 25.6078 21.1764
Li 32.9842 25.4762 25.1097
Li 29.5586 19.7531 21.0608
Li 16.0644 28.0919 20.9783
Li 23.3292 25.4888 21.2279
Li 22.6042 29.2903 21.0545
Li 18.8982 33.1974 17.2516
Li 16.6933 21.595 21.1633
Li 27.5615 25.5161 21.2174
Li 29.7623 33.929 21.2284
Li 23.2629 35.6143 21.1669
Li 15.9808 31.578 21.1975
Li 24.8878 17.458 21.0395
Li 32.8037 30.8196 21.1637
