602
592nano.out 0 0 0
C 24.0584 26.8477 16.2898
C 24.0551 26.7896 19.4972
C 24.767 28.0807 16.2713
C 25.4778 26.7882 19.4924
C 26.1965 25.6187 16.2771
C 26.188 25.5548 19.4859
C 26.9054 26.8522 16.2641
C 27.6112 25.5523 19.4711
C 24.0521 29.3101 16.241
C 24.0574 29.2517 19.5066
C 24.7623 30.5444 16.1703
C 25.4803 29.2501 19.5037
C 26.192 28.0825 16.2547
C 26.19 28.0178 19.4935
C 26.9018 29.3157 16.1886
C 27.6153 28.0145 19.4844
C 24.0476 26.7221 22.7336
C 24.0166 26.6787 25.9478
C 24.759 27.9533 22.7419
C 25.4384 26.68 25.9692
C 26.1789 25.4899 22.7349
C 26.1504 25.4473 25.9887
C 26.8904 26.7213 22.7384
C 27.5731 25.4492 26.0484
C 24.0477 29.1852 22.7557
C 24.0113 29.1434 25.9761
C 24.7596 30.4178 22.7703
C 25.4337 29.1452 25.9942
C 26.1805 27.9534 22.7459
C 26.1474 27.914 25.9914
C 26.8921 29.1872 22.7659
C 27.5703 27.9168 26.0448
C 30.4699 25.6187 16.2122
C 30.4555 25.5403 19.4139
C 31.1793 26.8486 16.1776
C 31.8933 25.5376 19.3759
C 30.444 25.4874 22.6299
C 30.4112 25.4485 26.2767
C 31.1583 26.7173 22.5972
C 31.8479 25.4521 26.4236
C 28.33 26.8522 16.236
C 28.3242 26.7818 19.4657
C 29.039 28.0823 16.1802
C 29.7501 26.7766 19.4416
C 28.3135 26.7212 22.7299
C 28.2821 26.6835 26.0866
C 29.0227 27.953 22.7443
C 29.7025 26.6854 26.2036
C 30.4747 23.16 16.212
C 30.4482 23.0752 19.4077
C 31.1807 24.3845 16.2041
C 31.8843 23.0799 19.3692
C 30.4412 23.0199 22.6027
C 30.405 22.9704 26.2958
C 31.1542 24.2502 22.5628
C 31.8343 22.9774 26.4783
C 28.335 24.3891 16.246
C 28.319 24.3181 19.4586
C 29.0435 25.6198 16.2356
C 29.7444 24.3142 19.4271
C 28.3096 24.2544 22.7077
C 28.2814 24.2152 26.096
C 29.0232 25.4873 22.6978
C 29.7032 24.2173 26.2161
C 30.4649 30.5294 15.9325
C 30.4672 30.467 19.5936
C 31.172 31.7716 15.7494
C 31.9119 30.4473 19.6034
C 30.4513 30.4182 22.8147
C 30.4062 30.3987 26.177
C 31.1629 31.6612 22.88
C 31.8379 30.3948 26.2464
C 24.0389 34.2394 15.9648
C 24.0647 34.1852 19.5367
C 24.7569 35.4777 15.9421
C 25.4839 34.1877 19.5617
C 26.1751 33.0058 15.9176
C 26.2015 32.9465 19.5792
C 26.8941 34.2566 15.7586
C 27.6283 32.9433 19.6387
C 24.0347 34.1118 22.6947
C 23.9943 34.0624 26.3076
C 24.7659 35.3503 22.57
C 25.4176 34.0661 26.3211
C 26.1809 32.885 22.7766
C 26.139 32.84 26.1907
C 26.9081 34.1312 22.7736
C 27.5596 32.8493 26.1804
C 28.3238 31.7721 15.9389
C 28.3322 31.7072 19.6035
C 29.0402 33.0201 15.8042
C 29.7606 31.7003 19.6531
C 28.3177 31.6527 22.8372
C 28.2726 31.6218 26.1198
C 29.0368 32.8997 22.884
C 29.696 31.6246 26.141
C 30.4671 28.0768 16.1437
C 30.4632 28.0051 19.4572
C 31.1774 29.3056 16.0381
C 31.9052 27.996 19.4351
C 30.4483 27.9521 22.6874
C 30.4061 27.9267 26.2638
C 31.1606 29.1945 22.7111
C 31.8399 27.9305 26.4508
C 24.0473 31.771 16.1064
C 24.0598 31.7152 19.5199
C 24.7565 33.0064 16.0014
C 25.4854 31.7129 19.5286
C 26.1873 30.5461 16.1318
C 26.1947 30.4817 19.5207
C 26.8953 31.7763 15.9975
C 27.6193 30.4781 19.5385
C 24.0461 31.6483 22.7764
C 24.0034 31.6063 26.0846
C 24.7606 32.8818 22.7522
C 25.4267 31.6093 26.0987
C 26.181 30.4195 22.7773
C 26.1424 30.3796 26.0423
C 26.8943 31.654 22.8022
C 27.5635 30.3839 26.0699
C 28.3251 29.3131 16.1406
C 28.3285 29.2425 19.5078
C 29.034 30.5451 16.0118
C 29.7541 29.2341 19.5096
C 28.3132 29.1871 22.7751
C 28.2767 29.1521 26.0773
C 29.0264 30.4224 22.8158
C 29.7008 29.1572 26.1656
H 14.4531 21.8679 16.1375
H 14.972 20.9351 19.2824
H 14.4444 21.7689 22.3372
H 14.9336 20.8184 26.4513
H 22.1376 16.0587 15.671
C 22.6859 17.0027 15.7391
H 23.5324 15.9907 19.8011
H 22.0859 15.9247 22.8579
C 22.6425 16.8672 22.8419
H 23.484 15.8724 26.048
H 15.6991 19.7273 16.0748
C 16.2331 20.6826 16.095
H 17.1041 19.7051 19.3537
H 17.8406 18.5095 15.9979
C 18.3847 19.4591 16.0364
H 15.6763 19.632 22.5219
C 16.2205 20.5818 22.5234
H 17.0746 19.5729 26.2506
H 17.8151 18.3921 22.6406
C 18.363 19.3405 22.6568
H 19.9824 17.2847 15.8448
C 20.5264 18.2334 15.9008
H 21.3813 17.2293 19.7196
H 19.9548 17.1592 22.7662
C 20.502 18.1083 22.7687
H 21.353 17.1082 26.0346
H 24.6164 16.0622 15.6996
H 24.5636 15.9271 22.8771
H 13.7272 25.544 19.3741
C 14.8228 25.5445 19.3857
H 13.6889 25.4425 26.2997
C 14.7826 25.4443 26.255
H 13.7282 23.0749 19.2951
H 14.4457 24.3298 16.1821
C 14.8227 23.0684 19.3219
H 13.6967 22.9629 26.4614
H 14.4375 24.2526 22.4312
C 14.7893 22.9594 26.4082
H 13.7216 30.4842 19.6014
H 14.4165 31.7458 15.8288
C 14.8162 30.4885 19.6235
H 13.674 30.3785 26.0692
H 14.4338 31.656 22.8908
C 14.7685 30.3888 26.0659
H 13.7223 28.0177 19.4652
H 14.4188 29.2698 16.0057
C 14.8176 28.0159 19.4744
H 13.6839 27.9122 26.1503
H 14.4365 29.1957 22.8135
C 14.7786 27.9126 26.1232
C 15.5471 21.8614 16.127
C 15.5075 21.8883 19.3147
C 16.2261 23.1272 16.1551
C 16.9428 21.8474 19.3517
C 17.6689 20.652 16.0935
C 17.6522 20.6524 19.3705
C 18.3758 21.904 16.139
C 19.068 20.6159 19.4205
C 15.5404 24.3358 16.1755
C 15.5045 24.3308 19.3613
C 16.2129 25.5837 16.1808
C 16.9431 24.3217 19.3862
C 17.6644 23.1247 16.1688
C 17.6519 23.0973 19.3816
C 18.3673 24.3639 16.2032
C 19.0759 23.0918 19.4165
C 15.5351 21.7644 22.4233
C 15.4772 21.7663 26.4059
C 16.2169 23.0359 22.429
C 16.915 21.7187 26.3076
C 17.6517 20.5391 22.6031
C 17.6233 20.5198 26.2246
C 18.3591 21.7919 22.623
C 19.0352 20.4912 26.1259
C 15.5295 24.2531 22.5056
C 15.467 24.2271 26.314
C 16.2062 25.4972 22.6276
C 16.9111 24.2123 26.2363
C 17.6544 23.0209 22.5645
C 17.6234 22.9797 26.2343
C 18.3579 24.2618 22.6433
C 19.046 22.9744 26.1181
C 21.9358 20.6902 16.0661
C 21.9172 20.6301 19.5245
C 22.649 21.9207 16.1502
C 23.3376 20.6305 19.5524
C 21.9085 20.5616 22.7691
C 21.8848 20.5112 26.025
C 22.6225 21.7961 22.7598
C 23.3039 20.5112 26.0115
C 19.8005 21.9068 16.147
C 19.7854 21.8622 19.4339
C 20.5101 23.1429 16.1991
C 21.207 21.8599 19.4729
C 19.7809 21.7917 22.6956
C 19.752 21.7428 26.0874
C 20.4917 23.0278 22.7081
C 21.1723 21.7423 26.0285
C 21.9238 18.2207 15.8462
C 21.9278 18.1757 19.6591
C 22.6558 19.4641 15.944
C 23.3255 18.16 19.7387
C 21.894 18.0906 22.8087
C 21.9014 18.0558 26.0405
C 22.6215 19.3304 22.8005
C 23.2909 18.0388 26.0446
C 19.7975 19.4351 16.0104
C 19.7896 19.4114 19.4788
C 20.5149 20.6817 16.0786
C 21.1912 19.3856 19.5478
C 19.772 19.3152 22.7238
C 19.7594 19.2884 26.0776
C 20.4891 20.5613 22.7351
C 21.1632 19.2659 26.0451
C 21.9259 25.6095 16.2736
C 21.9214 25.5583 19.4825
C 22.6346 26.8438 16.2852
C 23.3435 25.5581 19.4902
C 21.9144 25.4913 22.728
C 21.884 25.4449 25.9609
C 22.6257 26.7223 22.7337
C 23.3062 25.4454 25.9489
C 15.5129 29.2711 16.0264
C 15.4984 29.2326 19.548
C 16.1917 30.4891 15.9339
C 16.9354 29.2443 19.5584
C 17.6423 28.051 16.1528
C 17.6484 28.0142 19.4979
C 18.3518 29.2797 16.1137
C 19.0761 28.0193 19.5032
C 15.5312 29.1944 22.8132
C 15.4567 29.1286 26.0754
C 16.2112 30.4069 22.852
C 16.8951 29.1387 26.05
C 17.6463 27.9538 22.7638
C 17.6079 27.9055 26.0469
C 18.356 29.1829 22.8
C 19.0343 27.9065 26.0123
C 19.7852 26.8323 16.2423
C 19.7869 26.7891 19.4802
C 20.4931 28.0654 16.2398
C 21.2107 26.7906 19.4896
C 19.7814 26.7219 22.7303
C 19.7483 26.6761 26.0029
C 20.4923 27.9527 22.7519
C 21.1713 26.6766 25.9671
C 21.9329 23.1483 16.2101
C 21.9205 23.0948 19.4754
C 22.6414 24.3815 16.2557
C 23.3414 23.0944 19.4911
C 21.9128 23.0275 22.7355
C 21.8847 22.979 25.9935
C 22.6247 24.2597 22.7338
C 23.3061 22.9795 25.975
C 15.5255 26.8061 16.1568
C 15.5004 26.7839 19.4324
C 16.1986 28.0403 16.1152
C 16.9393 26.7857 19.4485
C 17.653 25.588 16.2028
C 17.6507 25.5558 19.4259
C 18.3578 26.8244 16.2079
C 19.0767 25.5568 19.4492
C 15.5268 26.723 22.6923
C 15.4615 26.6763 26.1555
C 16.2082 27.9512 22.763
C 16.9007 26.6752 26.1032
C 17.6468 25.4912 22.6651
C 17.6165 25.4481 26.1232
C 18.3555 26.722 22.7241
C 19.0401 25.4433 26.0548
C 19.7943 24.3701 16.2259
C 19.7873 24.3267 19.4431
C 20.5015 25.6043 16.2545
C 21.2103 24.3261 19.4656
C 19.7819 24.2591 22.6941
C 19.7524 24.2112 26.0509
C 20.4916 25.4919 22.7184
C 21.1741 24.2106 25.9941
C 24.0636 17.0044 15.7522
C 24.0831 16.933 19.7275
C 24.8204 18.2254 15.8745
C 25.4494 16.9357 19.6319
H 25.9992 15.9893 19.625
H 26.7595 17.293 15.9382
C 24.0799 19.4668 15.9573
C 24.0579 19.3995 19.6224
C 24.7926 20.6955 16.0908
C 25.4744 19.3952 19.5672
C 26.2121 18.2403 15.9698
C 26.2016 18.1547 19.5701
C 26.9398 19.4482 16.0875
C 27.5941 18.1706 19.5185
C 24.0068 16.8682 22.8528
C 24.0421 16.8137 26.0544
C 24.7607 18.09 22.8294
C 25.4062 16.8115 26.0596
H 25.9575 15.8661 26.0631
H 26.695 17.1561 22.8256
C 24.0357 19.3304 22.8095
C 24.0197 19.2797 26.0283
C 24.7545 20.5601 22.7879
C 25.4338 19.2789 26.0322
C 26.1503 18.1054 22.8145
C 26.1597 18.0358 26.0505
C 26.8919 19.3125 22.7819
C 27.5508 18.054 26.0639
H 28.1397 17.221 19.5243
H 28.0981 17.1055 26.0755
C 30.4794 20.7147 16.2
C 30.4491 20.6006 19.4166
C 31.1873 21.9098 16.1964
C 31.8832 20.6344 19.3796
C 30.4352 20.5631 22.6407
C 30.4074 20.4901 26.208
C 31.1497 21.7608 22.5807
C 31.8344 20.528 26.3045
C 24.0649 24.3846 16.2639
C 24.0537 24.3263 19.4899
C 24.7733 25.6171 16.2845
C 25.4761 24.3249 19.4903
C 26.2029 23.1557 16.2348
C 26.186 23.0913 19.4906
C 26.9109 24.3875 16.2584
C 27.6074 23.0888 19.4716
C 24.0457 24.2589 22.7398
C 24.0177 24.2131 25.9598
C 24.7579 25.4907 22.7347
C 25.4399 24.2144 25.9787
C 26.1774 23.0247 22.746
C 26.1505 22.9805 26.0048
C 26.889 24.2554 22.733
C 27.5707 22.9817 26.0603
C 28.3424 21.9254 16.212
C 28.3177 21.8519 19.4591
C 29.0499 23.155 16.2275
C 29.7405 21.8516 19.4273
C 28.3084 21.7871 22.7149
C 28.2793 21.7423 26.0932
C 29.0165 23.0173 22.6828
C 29.6993 21.741 26.1952
H 30.2826 18.4562 19.4441
H 31.0273 19.7669 16.2038
H 30.243 18.3416 26.1453
H 30.9828 19.6166 22.6169
C 24.0722 21.9234 16.1617
C 24.0528 21.8625 19.5134
C 24.7809 23.1547 16.2277
C 25.474 21.8607 19.508
C 26.2121 20.6926 16.1314
C 26.1872 20.6263 19.5131
C 26.92 21.9222 16.2009
C 27.6069 20.6234 19.48
C 24.0429 21.7955 22.7689
C 24.0177 21.7465 25.9902
C 24.756 23.0263 22.7528
C 25.4383 21.7468 26.001
C 26.1726 20.5583 22.776
C 26.1495 20.5108 26.0233
C 26.888 21.7883 22.7498
C 27.5699 20.5113 26.0577
C 28.3431 19.4748 16.1461
C 28.3245 19.3777 19.4786
C 29.0623 20.6794 16.1904
C 29.7354 19.4049 19.4452
C 28.2949 19.3337 22.7443
C 28.2867 19.2636 26.0794
C 29.0236 20.5348 22.7034
C 29.6936 19.2891 26.1354
H 32.4213 19.681 19.3666
H 33.1597 20.9934 16.1846
H 32.3786 19.5785 26.2752
H 33.1265 20.8562 22.5084
H 14.953 32.618 19.8413
H 14.9108 32.5236 26.0289
C 15.5102 31.7499 15.827
C 15.4967 31.6727 19.7501
C 16.1976 32.9433 15.7427
C 16.935 31.7135 19.7831
C 17.6379 30.5092 15.9805
C 17.6441 30.4698 19.6393
C 18.3453 31.7412 15.908
C 19.0746 30.484 19.5893
H 15.6517 33.8884 15.6688
H 17.1046 33.8611 19.9034
C 17.6341 32.9909 15.7638
C 17.6514 32.9221 19.7758
C 18.3437 34.1935 15.6905
C 19.0656 32.9604 19.703
C 15.5279 31.6692 22.8878
C 15.4495 31.5713 26.0473
C 16.2082 32.8523 22.9083
C 16.8855 31.6119 26.0458
C 17.6484 30.4176 22.8439
C 17.6002 30.3644 26.0379
C 18.3545 31.6437 22.8692
C 19.0253 30.3717 26.0253
H 15.6669 33.8039 22.9288
H 17.0428 33.7549 26.0268
C 17.6425 32.892 22.9012
C 17.593 32.8087 26.043
C 18.3537 34.0904 22.902
C 19.0094 32.8462 26.0624
C 21.9116 30.5344 16.172
C 21.9215 30.4853 19.5265
C 22.6214 31.7642 16.1047
C 23.3462 30.4864 19.5145
C 21.9137 30.4165 22.7868
C 21.8733 30.3738 26.0093
C 22.6239 31.6479 22.7923
C 23.2952 30.375 26.013
C 19.7731 31.7504 15.9933
C 19.7822 31.7127 19.6182
C 20.4783 32.9833 15.9063
C 21.2085 31.7173 19.575
C 19.7779 31.6486 22.847
C 19.7315 31.6013 26.0443
C 20.487 32.8796 22.8537
C 21.1547 31.6061 26.0522
C 21.9194 28.072 16.2674
C 21.9214 28.0212 19.5022
C 22.6281 29.3053 16.2409
C 23.3451 28.0216 19.5027
C 21.9149 27.9534 22.7458
C 21.88 27.9093 25.9586
C 22.6263 29.1849 22.7604
C 23.3031 27.9103 25.9525
C 19.7776 29.2912 16.1729
C 19.787 29.2503 19.53
C 20.4863 30.5265 16.1271
C 21.2102 29.2538 19.5154
C 19.7815 29.1845 22.7849
C 19.7424 29.1385 26.0011
C 20.4915 30.415 22.806
C 21.1654 29.141 25.983
C 21.8943 35.4735 15.8524
C 21.9443 35.4047 19.6462
C 22.6365 36.6923 15.9388
C 23.3445 35.4209 19.5441
C 21.8859 35.3507 22.7728
C 21.8599 35.2876 26.2854
C 22.6355 36.5687 22.6883
C 23.2513 35.3033 26.3924
H 19.9408 36.3895 15.6707
H 21.4046 36.3541 19.7231
H 19.9427 36.2786 22.8395
H 21.3127 36.2351 26.3067
C 21.9046 32.992 15.9798
C 21.9274 32.9479 19.6074
C 22.6214 34.2346 15.9339
C 23.3478 32.951 19.5457
C 21.9068 32.8805 22.8146
C 21.8623 32.8362 26.1244
C 22.6181 34.1133 22.7653
C 23.2818 32.834 26.1638
H 17.7927 35.131 15.5732
H 17.803 35.0374 22.9144
C 19.7534 34.2314 15.7573
C 19.7919 34.1673 19.7373
C 20.4861 35.4452 15.7522
C 21.2077 34.1968 19.7298
C 19.765 34.1227 22.8753
C 19.7288 34.0514 26.1022
C 20.4923 35.3312 22.8381
C 21.1322 34.0802 26.1673
C 32.6242 21.9479 16.182
C 32.565 21.8159 19.3537
C 33.3065 23.129 16.1723
H 33.6583 21.8261 19.3207
C 32.6206 24.392 16.1831
C 32.5653 24.2907 19.3504
C 33.3 25.6055 16.1695
H 33.659 24.2861 19.3218
H 34.4013 23.1384 16.1629
C 32.5851 21.8057 22.5147
C 32.5189 21.7111 26.4423
C 33.2758 22.9968 22.4638
H 33.6107 21.7105 26.5278
C 32.5962 24.2638 22.4672
C 32.5222 24.2061 26.4979
C 33.2805 25.4808 22.4115
H 33.61 24.1996 26.6238
H 34.3688 22.998 22.4115
C 32.6148 29.2941 16.0278
C 32.5889 29.2289 19.5002
C 33.2938 30.5486 15.9251
H 33.6828 29.2278 19.5031
H 34.3945 28.0772 16.1028
C 32.598 29.1894 22.6004
C 32.5195 29.1763 26.3849
C 33.2824 30.4438 22.7007
H 33.611 29.1838 26.4825
H 34.3679 27.9723 22.3333
C 32.6187 26.846 16.1572
C 32.5771 26.762 19.3799
C 33.2992 28.0771 16.1057
H 34.3954 25.6039 16.1577
C 32.6016 26.7178 22.4604
C 32.526 26.6888 26.4919
C 33.2798 27.965 22.453
H 34.3699 25.4756 22.3036
H 22.0802 37.6339 15.9518
H 23.5389 37.5788 19.4473
H 22.0831 37.5138 22.6893
H 23.4573 37.4669 26.5667
C 24.0062 36.6922 16.0002
C 24.0923 36.6363 19.4833
H 24.553 37.6362 16.0843
C 25.4632 36.6441 19.5
C 26.1585 35.4634 15.8526
C 26.2109 35.4301 19.5896
H 26.6974 36.416 15.8153
C 27.6211 35.4097 19.6695
H 26.013 37.59 19.4685
C 24.002 36.5733 22.5736
C 24.0082 36.5236 26.5203
H 24.5466 37.5174 22.4814
C 25.3862 36.5261 26.5373
C 26.1656 35.3379 22.663
C 26.1509 35.3093 26.4267
H 26.7081 36.2866 22.6059
C 27.5463 35.2993 26.3675
H 25.9321 37.4712 26.6076
H 30.3151 35.1025 19.8448
H 30.2352 35.0218 26.2309
H 28.1643 36.3593 19.6909
H 28.0902 36.2478 26.4257
C 30.4551 32.9818 15.7404
C 30.4709 32.9538 19.7503
H 31.0063 33.9215 15.6316
C 31.9064 32.9029 19.7771
C 30.4507 32.8596 22.9274
C 30.4042 32.8739 26.1547
H 31.0029 33.8032 22.976
C 31.8353 32.8363 26.1359
C 28.3115 34.227 15.7453
C 28.3544 34.1968 19.7182
C 29.7639 34.1599 19.7735
C 28.31 34.1055 22.8531
C 28.2792 34.0966 26.2484
C 29.6877 34.0734 26.2052
C 32.6105 31.7314 15.7799
C 32.5915 31.7082 19.71
H 33.1543 32.6771 15.6895
H 33.6839 31.7019 19.7327
H 34.3881 30.5468 15.9525
H 32.4521 33.8472 19.8573
C 32.5957 31.6164 22.8574
C 32.521 31.6524 26.1809
H 33.1386 32.5618 22.9455
H 33.6151 31.6458 26.1709
H 34.3757 30.4402 22.6428
H 32.3756 33.7871 26.0888
H 33.6107 26.6905 26.645
H 19.2124 18.3403 26.0832
H 19.1781 34.997 26.0983
H 14.4329 26.7259 22.6663
H 28.8581 35.0527 22.8629
H 33.671 26.7561 19.3601
H 28.839 18.3843 22.7395
H 19.2404 18.4652 19.4933
H 19.2472 35.1084 19.8577
H 28.855 35.172 15.6447
H 14.431 26.8001 16.1538
H 28.8916 18.5278 16.1364
Li 31.2304 31.8117 17.8318
Li 16.113 22.9063 24.4822
Li 23.3693 18.0852 17.6804
Li 24.6899 35.4528 24.604
Li 31.944 23.0569 24.3898
Li 16.8777 31.8595 17.711
Li 27.0679 34.2807 17.799
Li 21.0394 34.3776 17.6918
Li 32.1459 27.8395 24.4083
Li 15.2114 27.6451 24.3382
