620
592nano.out 0 0 0
C 24.0713 26.8185 16.2508
C 24.0464 26.7697 19.4688
C 24.7811 28.0589 16.2395
C 25.4719 26.766 19.4742
C 26.2203 25.5963 16.2099
C 26.1806 25.5293 19.4668
C 26.9302 26.8357 16.2045
C 27.6074 25.5243 19.4705
C 24.0599 29.291 16.1954
C 24.054 29.2398 19.4688
C 24.7689 30.5311 16.1172
C 25.4791 29.2363 19.4745
C 26.2099 28.0661 16.2163
C 26.1876 28.0006 19.4794
C 26.9201 29.306 16.1416
C 27.6135 27.9979 19.4854
C 24.0222 26.7133 22.7588
C 24.0155 26.6833 25.9792
C 24.7362 27.9482 22.7683
C 25.445 26.6892 25.9932
C 26.1603 25.4816 22.7458
C 26.1612 25.4554 26.0197
C 26.874 26.715 22.7585
C 27.5896 25.4606 26.0919
C 24.0233 29.1817 22.7767
C 24.0076 29.1552 26.0429
C 24.7365 30.4178 22.7845
C 25.4351 29.1611 26.0622
C 26.1625 27.9482 22.7709
C 26.1537 27.9296 26.0342
C 26.8779 29.1834 22.7782
C 27.5819 27.9365 26.1089
C 30.5085 25.6172 15.9574
C 30.4502 25.5135 19.5225
C 31.2152 26.8522 15.8631
C 31.8903 25.5073 19.5902
C 30.4414 25.4847 22.6863
C 30.4315 25.4696 26.3376
C 31.1611 26.7096 22.6698
C 31.8745 25.4774 26.4497
C 28.3611 26.8435 16.1305
C 28.3227 26.7596 19.4846
C 29.0659 28.0806 16.0534
C 29.7478 26.7565 19.5095
C 28.3029 26.7156 22.7506
C 28.2975 26.7015 26.1394
C 29.0174 27.9473 22.7501
C 29.7198 26.7061 26.2742
C 30.5204 23.1528 15.9185
C 30.4569 23.0482 19.495
C 31.2296 24.3796 15.8841
C 31.8829 23.0466 19.4852
C 30.444 23.019 22.6634
C 30.4416 23.0026 26.4557
C 31.1566 24.2494 22.6443
C 31.8727 23.0196 26.6038
C 28.3683 24.3764 16.077
C 28.3153 24.2895 19.4666
C 29.0817 25.6129 16.0774
C 29.7429 24.2869 19.4882
C 28.2982 24.2495 22.7153
C 28.3025 24.2299 26.1812
C 29.015 25.4833 22.7231
C 29.7278 24.2403 26.3091
C 30.4759 30.5539 15.7817
C 30.4733 30.4682 19.5576
C 31.1761 31.8032 15.6341
C 31.9119 30.4564 19.5725
C 30.453 30.414 22.6854
C 30.43 30.4197 26.4284
C 31.1632 31.6591 22.631
C 31.8691 30.4078 26.5564
C 24.0311 34.2263 15.7396
C 24.0692 34.1873 19.5039
C 24.7484 35.4639 15.5939
C 25.493 34.189 19.4972
C 26.178 32.9967 15.8281
C 26.2114 32.9415 19.4973
C 26.9002 34.2483 15.6527
C 27.6388 32.9403 19.5561
C 24.0196 34.1248 22.7192
C 23.9919 34.0835 26.4952
C 24.7456 35.3628 22.6546
C 25.4129 34.0893 26.5274
C 26.1575 32.8879 22.7625
C 26.1343 32.8588 26.4144
C 26.8804 34.1375 22.7482
C 27.5532 32.8714 26.4934
C 28.3327 31.7747 15.8805
C 28.3382 31.7041 19.5376
C 29.0456 33.029 15.7545
C 29.7681 31.7024 19.5736
C 28.3036 31.6477 22.7243
C 28.2753 31.6432 26.3856
C 29.0223 32.9066 22.6656
C 29.7172 31.6486 26.456
C 30.492 28.085 15.9106
C 30.4607 27.9948 19.5482
C 31.1982 29.3313 15.7802
C 31.9074 27.9918 19.6257
C 30.447 27.9447 22.7043
C 30.4221 27.9467 26.3815
C 31.1658 29.1879 22.6835
C 31.8682 27.944 26.5501
C 24.0494 31.7592 16.0169
C 24.062 31.7108 19.4602
C 24.7583 32.9936 15.874
C 25.4896 31.7087 19.4673
C 26.1979 30.5372 16.0865
C 26.197 30.4717 19.4781
C 26.9045 31.7713 15.9455
C 27.6217 30.4694 19.4991
C 24.0235 31.65 22.7769
C 23.998 31.62 26.2294
C 24.7396 32.8865 22.7606
C 25.4264 31.6275 26.2537
C 26.1637 30.4175 22.7823
C 26.1445 30.3995 26.1674
C 26.8763 31.6537 22.7659
C 27.5704 30.4059 26.2364
C 28.3433 29.3119 16.0565
C 28.3289 29.2306 19.4992
C 29.0464 30.5518 15.9201
C 29.7556 29.2254 19.5275
C 28.3039 29.1819 22.7616
C 28.2896 29.1736 26.2034
C 29.0172 30.4193 22.7313
C 29.7157 29.1758 26.3227
H 14.466 21.8266 15.4222
H 14.9241 20.9318 19.5686
H 14.3895 21.7722 22.5181
H 14.9325 20.7914 26.5361
H 22.1813 16.0085 15.4573
C 22.7236 16.9558 15.5194
H 23.4884 15.9593 19.5835
H 22.0822 15.8872 22.686
C 22.6294 16.8349 22.6827
H 23.5075 15.8747 26.514
H 15.7007 19.6819 15.4234
C 16.2474 20.624 15.518
H 17.0686 19.6762 19.5071
H 17.8743 18.4255 15.4644
C 18.4091 19.3756 15.5513
H 15.6165 19.6205 22.5244
C 16.1652 20.566 22.5697
H 17.0811 19.5555 26.5761
H 17.7569 18.3596 22.5699
C 18.3085 19.3029 22.6077
H 20.0342 17.2195 15.3888
C 20.5657 18.171 15.4868
H 21.3479 17.1988 19.538
H 19.925 17.1101 22.6142
C 20.4655 18.0604 22.634
H 21.3712 17.1037 26.5853
H 24.665 16.0245 15.559
H 24.5605 15.907 22.7432
H 13.676 25.5621 19.6085
C 14.7684 25.5598 19.5685
H 13.6664 25.4105 26.7139
C 14.7576 25.4176 26.6362
H 13.6876 23.0786 19.4922
H 14.4449 24.3204 15.5573
C 14.7807 23.0751 19.5334
H 13.68 22.9364 26.6219
H 14.3842 24.2483 22.6067
C 14.7728 22.939 26.5879
H 13.714 30.5325 19.5964
H 14.4252 31.7145 15.6291
C 14.8081 30.5303 19.5897
H 13.6582 30.3684 26.6452
H 14.3983 31.6672 22.7316
C 14.7522 30.374 26.6234
H 13.688 28.0591 19.6133
H 14.4348 29.2395 15.6002
C 14.7803 28.0461 19.5763
H 13.6555 27.8896 26.6872
H 14.3898 29.1928 22.6724
C 14.7473 27.8892 26.6225
C 15.5547 21.8293 15.5199
C 15.4724 21.879 19.5398
C 16.2256 23.0789 15.6407
C 16.8956 21.8379 19.565
C 17.6747 20.5813 15.5975
C 17.62 20.6207 19.4522
C 18.38 21.8423 15.7413
C 19.0351 20.5865 19.5406
C 15.5366 24.3154 15.6434
C 15.4571 24.3222 19.5798
C 16.2201 25.5418 15.6574
C 16.9 24.3108 19.5493
C 17.6633 23.0723 15.766
C 17.6103 23.0817 19.5332
C 18.3738 24.3167 15.8834
C 19.0464 23.0742 19.4878
C 15.4824 21.7625 22.5724
C 15.4714 21.7431 26.5397
C 16.1638 23.0181 22.5904
C 16.8967 21.7129 26.499
C 17.5885 20.5207 22.5862
C 17.6259 20.5031 26.5141
C 18.3025 21.7717 22.6497
C 19.0332 20.4849 26.5355
C 15.4766 24.2484 22.6743
C 15.4478 24.2003 26.5846
C 16.1581 25.4799 22.7124
C 16.8909 24.1947 26.4718
C 17.599 23.006 22.6685
C 17.6038 22.9655 26.4383
C 18.3132 24.2474 22.7287
C 19.0383 22.9659 26.3379
C 21.9623 20.6393 15.7994
C 21.9028 20.5999 19.4586
C 22.6666 21.8723 15.9671
C 23.3225 20.5982 19.472
C 21.8805 20.5337 22.6983
C 21.9059 20.5077 26.3992
C 22.5924 21.773 22.7364
C 23.3223 20.508 26.3374
C 19.8191 21.8496 15.8279
C 19.7577 21.844 19.4927
C 20.5184 23.0878 15.9901
C 21.1855 21.8349 19.4542
C 19.7391 21.7694 22.701
C 19.7519 21.7414 26.3937
C 20.4537 23.0066 22.745
C 21.1787 21.7376 26.3057
C 21.9675 18.1663 15.546
C 21.8959 18.1447 19.488
C 22.6864 19.4111 15.688
C 23.3044 18.1202 19.5717
C 21.8806 18.0458 22.6324
C 21.9146 18.0529 26.5311
C 22.6015 19.2918 22.6665
C 23.3233 18.0348 26.4921
C 19.8299 19.3616 15.5492
C 19.7631 19.3815 19.4805
C 20.5441 20.6238 15.7141
C 21.1761 19.3512 19.4651
C 19.7257 19.2672 22.625
C 19.7687 19.2767 26.459
C 20.4517 20.5294 22.6826
C 21.1874 19.256 26.5462
C 21.9325 25.5688 16.1841
C 21.9039 25.5406 19.446
C 22.6413 26.8091 16.2236
C 23.3301 25.5364 19.455
C 21.8831 25.4775 22.7637
C 21.8773 25.4407 26.038
C 22.5962 26.7123 22.7632
C 23.3055 25.4442 25.9972
C 15.527 29.2446 15.6708
C 15.479 29.2748 19.5965
C 16.2078 30.4823 15.6895
C 16.9187 29.2745 19.5503
C 17.6592 28.0264 15.8201
C 17.6294 28.0262 19.499
C 18.3627 29.2571 15.8735
C 19.0586 28.0196 19.4609
C 15.4838 29.187 22.7108
C 15.4343 29.1202 26.5953
C 16.1709 30.4165 22.7115
C 16.8721 29.1319 26.4826
C 17.6115 27.9527 22.7089
C 17.5916 27.8924 26.3817
C 18.3224 29.1805 22.7303
C 19.0167 27.9 26.2279
C 19.7878 26.7936 16.0623
C 19.7657 26.7813 19.446
C 20.497 28.0341 16.1001
C 21.1945 26.777 19.4473
C 19.7443 26.7126 22.7623
C 19.7313 26.6694 26.1542
C 20.4584 27.9475 22.7652
C 21.1598 26.6731 26.056
C 21.9456 23.0982 16.0577
C 21.8993 23.0704 19.4388
C 22.6535 24.3377 16.1616
C 23.3261 23.0663 19.4373
C 21.8794 23.0064 22.7527
C 21.8857 22.9699 26.1609
C 22.5942 24.2435 22.7582
C 23.3152 22.9725 26.1138
C 15.5324 26.7803 15.7462
C 15.4508 26.7994 19.5727
C 16.2161 28.0217 15.6657
C 16.9075 26.7934 19.5136
C 17.6647 25.5438 15.8212
C 17.6203 25.5535 19.5009
C 18.3652 26.7869 15.9171
C 19.0489 25.5489 19.4565
C 15.4799 26.7151 22.6995
C 15.433 26.6484 26.5961
C 16.1623 27.951 22.6413
C 16.883 26.6557 26.4547
C 17.6044 25.4753 22.7316
C 17.6015 25.4316 26.3749
C 18.3174 26.7123 22.7415
C 19.0233 25.4344 26.2319
C 19.7979 24.3193 16.0156
C 19.7603 24.311 19.4567
C 20.5044 25.5585 16.1065
C 21.1868 24.3069 19.4412
C 19.7429 24.2437 22.7524
C 19.7432 24.2014 26.2138
C 20.4557 25.4761 22.7657
C 21.1673 24.2032 26.12
C 24.1087 16.9654 15.5757
C 24.0463 16.9001 19.5598
C 24.8428 18.1851 15.6465
C 25.4233 16.8896 19.5575
H 25.9662 15.9403 19.5708
H 26.8069 17.2752 15.5535
C 24.1074 19.4194 15.7307
C 24.0339 19.3564 19.5147
C 24.8194 20.6606 15.8587
C 25.4535 19.3445 19.5239
C 26.2551 18.2165 15.6371
C 26.1762 18.0984 19.5724
C 26.9714 19.4278 15.6512
C 27.59 18.111 19.573
C 24.0023 16.8474 22.717
C 24.0619 16.8183 26.5184
C 24.7376 18.0645 22.6988
C 25.4347 16.8133 26.5564
H 25.9861 15.8684 26.5833
H 26.6931 17.1389 22.6431
C 24.02 19.2987 22.6923
C 24.0383 19.2709 26.4247
C 24.733 20.5391 22.6988
C 25.4551 19.2718 26.4555
C 26.1469 18.0876 22.6718
C 26.1788 18.0299 26.5644
C 26.8729 19.2915 22.6248
C 27.5935 18.0495 26.5889
H 28.1285 17.1605 19.6145
H 28.1373 17.1034 26.6567
C 30.5165 20.7085 15.762
C 30.4668 20.5721 19.5993
C 31.235 21.9164 15.861
C 31.8891 20.609 19.5238
C 30.43 20.5599 22.6806
C 30.4572 20.5229 26.618
C 31.1556 21.7716 22.6738
C 31.88 20.5723 26.6773
C 24.0812 24.3472 16.1842
C 24.0409 24.301 19.4473
C 24.792 25.5867 16.2325
C 25.4656 24.2966 19.4518
C 26.2318 23.1281 16.0766
C 26.1779 23.0583 19.4449
C 26.9427 24.3664 16.1356
C 27.602 23.0553 19.4575
C 24.0199 24.2448 22.7484
C 24.0242 24.2109 26.029
C 24.734 25.4791 22.7503
C 25.4516 24.2166 26.0381
C 26.1592 23.0118 22.7215
C 26.1694 22.9819 26.1272
C 26.8732 24.2472 22.7295
C 27.5946 22.9895 26.1991
C 28.3813 21.9215 15.8736
C 28.3156 21.8185 19.5002
C 29.0883 23.1473 15.966
C 29.751 21.8196 19.5394
C 28.3 21.7858 22.6703
C 28.3087 21.7584 26.3508
C 29.0089 23.0142 22.688
C 29.7411 21.7673 26.4787
H 30.2938 18.4144 19.697
H 31.07 19.7671 15.6836
H 30.2969 18.3623 26.7005
H 30.9803 19.6151 22.6368
C 24.095 21.8839 15.993
C 24.0377 21.8329 19.447
C 24.8021 23.1181 16.1014
C 25.4632 21.8258 19.4467
C 26.2374 20.6713 15.8178
C 26.1739 20.5865 19.4821
C 26.9515 21.904 15.9348
C 27.6036 20.5808 19.5117
C 24.0184 21.7762 22.7263
C 24.0321 21.7442 26.2038
C 24.7315 23.009 22.7344
C 25.4586 21.7472 26.2075
C 26.1509 20.5427 22.6721
C 26.1724 20.5145 26.3529
C 26.8721 21.7779 22.6942
C 27.5992 20.5176 26.4172
C 28.3848 19.4604 15.735
C 28.33 19.3202 19.587
C 29.111 20.6814 15.7062
C 29.7437 19.3562 19.6243
C 28.2915 19.3214 22.7442
C 28.3279 19.2608 26.5643
C 29.0247 20.5326 22.6307
C 29.7436 19.3013 26.6168
H 32.4315 19.659 19.516
H 33.1952 20.9967 15.9504
H 32.4289 19.6282 26.7371
H 33.1176 20.8543 22.6698
H 14.9709 32.672 19.6228
H 14.8991 32.5142 26.673
C 15.5187 31.728 15.6401
C 15.5056 31.7174 19.5988
C 16.2028 32.9333 15.6076
C 16.9344 31.7485 19.6119
C 17.6454 30.4971 15.7658
C 17.6392 30.4978 19.5419
C 18.3505 31.7312 15.7441
C 19.0701 30.4937 19.4896
H 15.6529 33.8776 15.5702
H 17.1168 33.9033 19.5924
C 17.632 32.982 15.6313
C 17.6596 32.9552 19.5332
C 18.3385 34.1904 15.5963
C 19.0656 32.9742 19.5048
C 15.4917 31.6722 22.7186
C 15.4406 31.5633 26.6381
C 16.1811 32.8725 22.6935
C 16.8712 31.6032 26.6162
C 17.6107 30.4258 22.7043
C 17.5822 30.3608 26.4687
C 18.3217 31.658 22.6911
C 19.0115 30.3708 26.3289
H 15.6356 33.8205 22.6934
H 17.0372 33.761 26.6428
C 17.6106 32.9151 22.6685
C 17.5862 32.8182 26.5549
C 18.3229 34.1214 22.6631
C 18.9929 32.8482 26.4782
C 21.9149 30.5154 16.0698
C 21.9188 30.4805 19.4628
C 22.6213 31.7513 15.9971
C 23.3452 30.4782 19.4618
C 21.8852 30.4182 22.7705
C 21.8601 30.3805 26.155
C 22.5977 31.6514 22.7673
C 23.2888 30.3866 26.1253
C 19.7761 31.737 15.8492
C 19.7815 31.7192 19.4891
C 20.4748 32.973 15.7773
C 21.2084 31.718 19.4808
C 19.7503 31.6556 22.7225
C 19.7154 31.6001 26.3575
C 20.4543 32.8908 22.7004
C 21.1421 31.6078 26.2908
C 21.9236 28.0419 16.1835
C 21.9112 28.0092 19.4577
C 22.6334 29.2819 16.1679
C 23.3368 28.007 19.4676
C 21.8853 27.9474 22.7684
C 21.8684 27.9106 26.0346
C 22.5985 29.181 22.7741
C 23.2963 27.9167 26.001
C 19.7841 29.2669 16.0033
C 19.7772 29.2513 19.4651
C 20.4901 30.5075 15.9894
C 21.2012 29.247 19.4578
C 19.7487 29.1825 22.7559
C 19.7258 29.1375 26.2019
C 20.4609 30.4194 22.7559
C 21.1489 29.1436 26.1083
C 21.8798 35.4631 15.6345
C 21.932 35.4102 19.5549
C 22.6214 36.6785 15.5846
C 23.3412 35.4307 19.5556
C 21.8725 35.3758 22.6824
C 21.8493 35.2938 26.5889
C 22.6233 36.5891 22.6967
C 23.2569 35.3195 26.5852
H 19.9217 36.3849 15.5651
H 21.3897 36.3582 19.6229
H 19.9202 36.3093 22.6676
H 21.3012 36.2374 26.6717
C 21.8999 32.9801 15.8478
C 21.9297 32.9483 19.5137
C 22.6118 34.2241 15.7429
C 23.3486 32.9469 19.4817
C 21.8809 32.8887 22.7301
C 21.8584 32.8384 26.4076
C 22.5995 34.1314 22.7128
C 23.2765 32.8452 26.3653
H 17.7853 35.1309 15.5214
H 17.7722 35.0668 22.6475
C 19.7412 34.2242 15.6425
C 19.796 34.1777 19.5249
C 20.4689 35.44 15.6233
C 21.2041 34.2021 19.594
C 19.7259 34.1484 22.6607
C 19.7167 34.0542 26.5327
C 20.4634 35.3602 22.6789
C 21.1259 34.0824 26.5836
C 32.6567 21.9471 15.8886
C 32.5665 21.8017 19.4565
C 33.3466 23.1336 15.815
H 33.6586 21.813 19.3966
C 32.6619 24.3807 15.7307
C 32.568 24.2763 19.5362
C 33.3499 25.6173 15.6207
H 33.6622 24.2693 19.6067
H 34.4412 23.141 15.8183
C 32.5794 21.8056 22.6641
C 32.5585 21.769 26.669
C 33.2768 23.0001 22.6234
H 33.6512 21.7833 26.724
C 32.6006 24.2588 22.6078
C 32.5595 24.2505 26.5247
C 33.2917 25.4765 22.6061
H 33.6499 24.256 26.6148
H 34.3705 22.9994 22.6041
C 32.6358 29.3319 15.6643
C 32.5929 29.2192 19.5988
C 33.3051 30.5899 15.6215
H 33.6852 29.2173 19.6706
H 34.4281 28.1172 15.5829
C 32.6089 29.1793 22.6758
C 32.5533 29.1759 26.5447
C 33.2838 30.4304 22.6924
H 33.6463 29.1691 26.6074
H 34.3922 27.9456 22.673
C 32.6658 26.8562 15.69
C 32.5875 26.7486 19.5221
C 33.3374 28.105 15.6582
H 34.4364 25.6155 15.4935
C 32.616 26.7062 22.6298
C 32.5516 26.7104 26.5008
C 33.2984 27.9471 22.6751
H 34.3857 25.4675 22.5765
H 22.0687 37.6213 15.5372
H 23.5401 37.5873 19.6604
H 22.076 37.5365 22.6937
H 23.4413 37.4794 26.6882
C 24.0002 36.6793 15.5621
C 24.0891 36.6445 19.6012
H 24.5499 37.624 15.5006
C 25.4773 36.6486 19.5796
C 26.163 35.4553 15.6617
C 26.2288 35.4344 19.5444
H 26.7013 36.4034 15.5586
C 27.6423 35.4116 19.5605
H 26.0249 37.5931 19.6382
C 23.9987 36.5826 22.6783
C 23.997 36.5385 26.6587
H 24.5539 37.5253 22.6535
C 25.3809 36.5449 26.7005
C 26.1549 35.3421 22.7214
C 26.1362 35.3324 26.6601
H 26.7001 36.2895 22.6691
C 27.5377 35.3259 26.7026
H 25.9256 37.4908 26.7635
H 30.3295 35.1079 19.6445
H 30.2273 35.0659 26.7205
H 28.1861 36.3598 19.5847
H 28.0712 36.2769 26.7919
C 30.4501 33.0118 15.6924
C 30.485 32.9559 19.6138
H 30.9916 33.959 15.6033
C 31.9133 32.9097 19.604
C 30.4384 32.8756 22.7385
C 30.4242 32.9081 26.5987
H 30.9861 33.8212 22.6631
C 31.8516 32.8639 26.6981
C 28.3096 34.2315 15.6836
C 28.3731 34.198 19.606
C 29.7756 34.1647 19.621
C 28.2926 34.1103 22.7313
C 28.2714 34.1328 26.6435
C 29.6915 34.1156 26.6414
C 32.6052 31.7748 15.6046
C 32.598 31.7047 19.579
H 33.1395 32.7289 15.5575
H 33.6914 31.6931 19.5871
H 34.399 30.5941 15.5905
H 32.4632 33.8551 19.6202
C 32.5887 31.623 22.638
C 32.5429 31.6583 26.6972
H 33.1334 32.5699 22.5577
H 33.6312 31.6571 26.8029
H 34.3777 30.43 22.7296
H 32.3963 33.8062 26.805
H 33.6425 26.7086 26.5921
H 19.2275 18.3282 26.5426
H 19.1684 34.9962 26.6313
H 14.3869 26.7176 22.6371
H 28.8342 35.0594 22.6696
H 33.6721 26.7388 19.6818
H 28.838 18.3752 22.6675
H 19.218 18.4338 19.5341
H 19.2517 35.1244 19.5943
H 28.8487 35.1783 15.5781
H 14.4417 26.7823 15.6404
H 28.9397 18.5241 15.6149
Li 31.1746 31.7944 17.7284
Li 16.0636 23.0162 24.6713
Li 23.2933 18.067 17.4776
Li 24.7823 35.4332 24.7479
Li 31.911 23.1441 24.5035
Li 16.8841 31.8445 17.5287
Li 27.1741 34.232 17.6996
Li 21.053 34.4234 17.547
Li 32.03 27.8749 24.5132
Li 15.9174 27.8845 24.6894
Li 18.8071 20.4435 24.4863
Li 29.2875 20.3614 24.6804
Li 19.1292 20.2873 17.4942
Li 26.8789 19.1449 17.6938
Li 21.2447 19.082 24.5023
Li 26.8763 18.9955 24.6671
Li 28.9912 33.1759 24.7057
Li 21.0612 34.2384 24.5376
Li 16.0456 28.1842 17.7089
Li 16.0068 25.4307 17.7001
Li 16.9516 31.7161 24.5386
Li 32.155 28.1933 17.5897
Li 29.2967 20.5284 17.7341
Li 32.5822 25.4321 17.6257
Li 24.6678 35.5761 17.6849
Li 31.4319 31.786 24.7212
Li 16.7571 21.7471 17.4812
Li 23.8092 17.0632 24.6028
