594
592nano.out 0 0 0
C 22.6502 21.8939 16.5821
C 20.5096 23.13 16.582
C 21.9343 20.655 16.5674
C 24.0754 21.8935 16.584
C 19.7946 21.8907 16.5675
C 19.7976 24.3639 16.5836
C 29.0681 25.5985 16.5819
C 29.0675 28.0699 16.5837
C 28.3559 24.3644 16.5808
C 20.5093 30.5389 16.5824
C 22.65 31.7742 16.5823
C 19.7972 29.3052 16.5837
C 28.3548 29.3037 16.5836
C 24.075 31.774 16.5834
C 24.7915 20.6537 16.5727
C 21.9371 23.1304 16.5859
C 18.3659 24.3644 16.572
C 26.9321 21.8884 16.5726
C 28.3536 26.8341 16.5878
C 18.365 26.8348 16.5754
C 21.937 30.538 16.5863
C 20.5085 20.6568 16.5543
C 29.0716 23.1248 16.5608
C 26.2158 23.1289 16.5846
C 19.7976 26.8346 16.5849
C 26.2149 30.5387 16.5841
C 18.3656 29.3051 16.5721
C 30.4992 25.5992 16.5662
C 26.9309 31.7789 16.5743
C 30.4987 28.0697 16.5702
C 19.7943 31.7782 16.5683
C 29.0699 30.5436 16.5713
C 26.9267 29.304 16.5843
C 24.7893 30.5377 16.5842
C 21.9342 33.0132 16.568
C 24.7911 33.0134 16.5715
C 24.7898 23.1301 16.5853
C 26.9275 24.3638 16.5847
C 20.5111 25.6007 16.5845
C 20.5108 28.0684 16.5847
C 26.2173 20.6545 16.5654
C 17.6543 25.599 16.566
C 22.6515 19.4209 16.5476
C 28.3584 21.8909 16.5554
C 18.3671 21.8951 16.5475
C 17.6541 28.0706 16.566
C 24.0726 19.4199 16.5539
C 17.6567 23.1252 16.5533
C 31.2105 26.8347 16.5572
C 28.3565 31.7767 16.5646
C 26.2162 33.0122 16.565
C 20.5083 33.012 16.5554
C 26.9264 26.834 16.5853
C 22.6504 29.3024 16.5841
C 22.6505 24.366 16.5841
C 30.4998 23.1312 16.533
C 31.2094 24.3615 16.5365
C 17.6563 30.5445 16.5539
C 18.3667 31.7744 16.5486
C 31.2084 29.3084 16.5486
C 26.2132 28.0681 16.5841
C 24.0758 29.302 16.5836
C 30.4981 30.5382 16.5528
C 26.2136 25.5998 16.585
C 21.9381 28.0681 16.5838
C 22.6515 34.2472 16.5478
C 21.9382 25.6006 16.5837
C 24.0762 24.3661 16.5842
C 24.0726 34.2473 16.553
C 19.7891 19.4113 16.5135
C 24.788 28.0679 16.5811
C 22.6508 26.8344 16.581
C 24.7882 25.6004 16.5818
C 21.9227 18.1777 16.506
C 17.6542 20.6425 16.5059
C 26.9397 19.4049 16.5334
C 29.0786 20.6404 16.518
C 16.2111 25.6003 16.5349
C 24.8009 18.1739 16.5188
C 16.2109 28.0699 16.535
C 16.2134 23.1332 16.5182
C 24.0758 26.8342 16.5808
C 32.6497 26.8356 16.5169
C 20.5248 18.1986 16.4869
C 18.3705 19.4422 16.4869
C 19.7891 34.2579 16.5155
C 31.2138 21.8784 16.4823
C 29.0768 33.027 16.5332
C 26.9384 34.2613 16.5337
C 32.6505 24.3722 16.496
C 16.2129 30.537 16.519
C 32.6501 29.2997 16.5077
C 17.6539 33.0273 16.508
C 21.9231 35.491 16.5074
C 31.2124 31.7919 16.5169
C 24.8009 35.4931 16.5177
C 26.1968 18.1897 16.5138
C 15.5296 24.3496 16.5136
C 33.3322 25.5927 16.4869
C 28.3516 19.4312 16.5134
C 33.332 28.0795 16.4905
C 30.5028 20.6778 16.4835
C 15.5275 26.8351 16.5212
C 22.6759 16.9477 16.4708
C 18.3702 34.2276 16.4894
C 20.5248 35.4708 16.489
C 15.5292 29.3207 16.514
C 16.2123 20.6799 16.471
C 24.0439 16.9455 16.4795
C 15.5273 21.8637 16.4797
C 30.5008 32.9919 16.5119
C 28.3497 34.2357 16.5196
C 26.1965 35.4767 16.5125
H 19.9727 17.245 16.444
H 17.8205 18.4874 16.4441
C 33.3383 23.1067 16.4498
C 32.6553 21.9214 16.4427
C 33.3385 30.567 16.4715
C 15.5268 31.8067 16.4812
C 16.212 32.9905 16.4732
C 32.6549 31.7517 16.4791
C 22.6762 36.7212 16.4724
C 24.0444 36.7221 16.4801
H 34.434 28.0791 16.4456
H 34.4342 25.5943 16.4441
H 26.7471 17.2338 16.4808
H 22.1187 15.9975 16.4333
H 15.6685 19.722 16.434
H 14.4263 24.3485 16.4828
H 19.973 36.4249 16.4458
H 17.8207 35.183 16.4461
H 31.055 19.7225 16.452
H 14.4259 29.3221 16.4833
H 24.6005 15.9945 16.4506
H 28.9024 18.4754 16.4814
H 14.4252 21.8712 16.452
H 14.4243 26.8351 16.4901
H 31.0536 33.9463 16.4813
H 26.7467 36.4326 16.4815
H 34.4398 23.1147 16.4186
H 33.2013 20.9646 16.4113
H 28.9005 35.1912 16.4883
H 34.4402 30.5589 16.4338
H 15.6685 33.9487 16.4354
H 14.4249 31.8 16.4524
H 22.119 37.6719 16.435
H 33.1995 32.7095 16.4509
H 24.6008 37.6733 16.4517
C 23.332 20.6037 19.8689
C 19.058 23.078 19.8657
C 21.1963 21.8402 19.8662
C 21.9085 20.606 19.8659
C 26.1862 20.6013 19.8635
C 19.7708 21.8442 19.8639
C 25.4725 21.8415 19.8676
C 28.3258 21.8332 19.8168
C 24.0477 21.842 19.8701
C 27.6145 23.0759 19.8391
C 19.0614 25.5501 19.8667
C 19.7741 24.317 19.8666
C 24.0489 19.3697 19.8663
C 19.0616 28.0205 19.8661
C 17.6304 25.551 19.8644
C 28.327 24.3117 19.8319
C 27.612 20.5995 19.8339
C 17.6311 28.0204 19.8631
C 29.7589 24.312 19.8255
C 17.63 23.0833 19.8629
C 26.1858 23.078 19.8614
C 19.7741 29.2531 19.8663
C 25.4675 19.3665 19.868
C 21.9121 23.0799 19.8685
C 19.7756 26.7851 19.8664
C 19.059 30.4926 19.864
C 29.7559 21.8349 19.7438
C 29.7623 26.7828 19.8697
C 28.3289 26.7836 19.87
C 28.3311 29.2525 19.8696
C 16.9194 26.7859 19.8618
C 24.0535 31.7211 19.8663
C 21.9143 30.4868 19.8668
C 30.4695 23.0686 19.765
C 16.9202 24.3137 19.8624
C 27.6189 30.4856 19.8674
C 23.336 23.0789 19.8709
C 25.4782 31.7203 19.8654
C 21.2017 24.3156 19.8674
C 21.1975 31.7273 19.8655
C 26.1923 30.4845 19.8657
C 27.6126 25.5507 19.8589
C 30.4737 25.5454 19.8443
C 21.2021 29.2532 19.8671
C 29.763 29.2522 19.8681
C 27.6165 28.0174 19.8715
C 23.3397 30.4849 19.8666
C 21.1855 19.3579 19.8589
C 16.9215 29.2582 19.8595
C 23.3367 32.9606 19.865
C 19.049 20.5948 19.8593
C 17.6316 30.488 19.8596
C 19.7721 31.7256 19.8628
C 30.476 28.0188 19.8718
C 21.9116 32.9603 19.8632
C 25.4732 24.3153 19.8685
C 21.2022 26.7848 19.8669
C 25.4789 29.2499 19.8674
C 23.3197 18.1254 19.8603
C 28.3263 19.3463 19.8207
C 28.3329 31.7246 19.8638
C 26.1845 25.5502 19.868
C 26.1929 32.9591 19.8642
C 21.9155 28.0181 19.8665
C 24.0537 29.2497 19.8662
C 26.1901 28.0164 19.8697
C 24.0486 24.3152 19.8707
C 21.9145 25.551 19.8673
C 16.9141 21.8298 19.858
C 19.776 19.3847 19.8545
C 26.1919 18.119 19.8636
C 21.926 18.1421 19.8555
C 30.4712 30.4915 19.8627
C 30.4565 20.5715 19.6339
C 17.6249 20.6293 19.8554
C 24.0545 34.1942 19.8615
C 23.3401 28.0173 19.8667
C 25.4748 26.7842 19.8712
C 15.481 26.786 19.8555
C 23.3387 25.5502 19.8692
C 31.9215 25.5461 19.8417
C 27.6187 32.9579 19.8622
C 24.0511 26.7835 19.8686
C 31.9174 23.0807 19.6976
C 15.4792 24.3226 19.8564
C 29.7595 31.7204 19.8622
C 29.7412 19.3703 19.7361
C 15.4801 29.2496 19.8534
C 25.475 34.1935 19.8625
C 31.9209 28.018 19.8647
C 27.589 18.1341 19.8495
C 19.0516 32.9758 19.8564
C 16.9166 31.7419 19.8542
C 21.1895 34.2097 19.8568
C 24.0718 16.8961 19.8545
C 14.7985 28.0297 19.8517
C 32.6033 24.2954 19.7818
C 14.7984 25.5428 19.8533
C 32.6052 26.7814 19.8543
C 25.4383 16.8901 19.8587
C 15.4714 21.8705 19.8521
C 17.6275 32.9414 19.8517
C 31.8992 20.6171 19.5093
C 19.779 34.1846 19.8523
C 31.9143 30.4857 19.8586
H 19.2231 18.4292 19.8476
H 21.3734 17.1868 19.8469
C 32.5929 21.8098 19.5493
C 23.3259 35.4407 19.856
H 17.0719 19.673 19.8477
C 32.6006 29.2705 19.8592
C 14.7904 23.0559 19.8521
C 21.9316 35.4252 19.8526
H 30.2917 18.4146 19.705
C 14.7913 30.5171 19.8491
C 15.4739 31.7018 19.8493
H 28.1424 17.1788 19.8402
C 28.3368 34.2047 19.8579
H 23.5133 15.9475 19.8428
H 13.695 28.0287 19.8444
C 30.4713 32.9731 19.8569
C 26.2027 35.4381 19.8573
H 33.7064 24.2946 19.7477
H 14.9281 20.9113 19.8459
H 13.6952 25.5434 19.8457
H 33.7107 26.7825 19.8458
H 25.9962 15.9388 19.8483
H 32.436 19.669 19.3606
H 17.0747 33.897 19.8445
H 19.2276 35.141 19.8443
H 33.6874 21.8207 19.4397
H 33.7049 29.2714 19.8493
H 13.6883 23.0635 19.8454
H 13.6885 30.5092 19.8436
C 32.5996 31.7554 19.8513
H 21.3811 36.3822 19.8454
C 24.0818 36.6696 19.8518
H 14.9298 32.6609 19.8445
C 27.6006 35.4183 19.8563
C 29.7551 34.174 19.8554
C 31.9127 32.9375 19.8524
C 25.4491 36.6689 19.8528
H 33.7025 31.7476 19.8438
H 23.5228 37.6197 19.8453
H 28.152 36.3747 19.8469
H 30.3051 35.1312 19.8473
H 32.4564 33.8963 19.8454
H 26.007 37.6202 19.8456
H 15.6201 19.6101 23.2742
H 22.0719 15.8871 23.277
H 17.7729 18.3743 23.2729
H 19.9247 17.132 23.2733
H 24.555 15.8848 23.2778
H 14.3789 21.7612 23.2747
C 22.6298 16.8382 23.2691
C 16.1649 20.5689 23.2672
H 33.1625 20.8846 23.7247
C 18.323 19.3313 23.2638
C 20.4781 18.0875 23.2658
C 23.9976 16.8363 23.2675
H 26.7012 17.1232 23.2654
H 34.4006 23.0226 23.4521
C 15.4811 21.7527 23.2682
H 34.3928 30.4582 23.2753
H 14.38 24.236 23.2743
H 14.3778 31.6848 23.2755
H 28.859 18.363 23.293
H 31.0075 19.6117 23.5654
H 15.6208 33.8357 23.2765
H 14.3782 26.7219 23.2753
H 34.3899 27.9784 23.2628
H 22.0696 37.5583 23.2749
H 33.1475 32.6084 23.2779
H 14.3791 29.2085 23.2753
H 34.3907 25.4979 23.2796
C 17.6071 20.5315 23.2628
C 21.877 18.0678 23.2646
H 24.5534 37.5589 23.2743
C 19.7423 19.3003 23.2628
H 19.925 36.3118 23.2746
C 32.6118 21.829 23.5735
C 33.2947 23.0127 23.4353
H 17.773 35.0697 23.2757
C 26.1495 18.0796 23.2545
C 33.2898 30.4658 23.2638
C 15.484 24.237 23.2674
H 31.0017 33.8419 23.2729
C 15.4805 31.6928 23.2712
C 24.7542 18.0648 23.2566
H 26.6969 36.3211 23.2725
H 28.8504 35.0821 23.2721
C 16.167 23.0219 23.264
C 16.1652 32.8764 23.2715
C 28.3038 19.3179 23.2906
C 32.6048 31.6485 23.2672
C 30.4524 20.5647 23.4723
C 22.6276 36.6074 23.269
C 15.4822 26.7219 23.2677
C 33.2858 27.9791 23.2561
C 15.4833 29.2073 23.2685
C 33.2877 25.4947 23.2845
C 23.9948 36.6089 23.2688
C 26.8911 19.2942 23.2573
C 31.1617 21.7807 23.5387
C 20.4774 35.3567 23.2679
C 29.0275 20.5256 23.3492
C 16.1654 25.4878 23.2633
C 32.6045 24.2741 23.3433
C 18.3234 34.1133 23.2692
C 22.6064 19.3111 23.2581
C 32.6019 29.198 23.2551
C 18.3205 21.7844 23.2579
C 16.1667 30.4229 23.2663
C 24.0296 26.7215 23.253
C 16.1651 27.9565 23.2639
C 20.4626 20.5459 23.2594
C 32.6038 26.7352 23.2618
C 24.7412 27.9552 23.2519
C 30.4509 32.8844 23.2661
C 22.6043 26.7219 23.2546
C 24.7421 25.4885 23.2482
C 24.0278 19.3112 23.2534
C 17.6075 32.9132 23.2675
C 26.1452 35.3651 23.2656
C 21.8748 35.3773 23.2651
C 17.6106 23.0142 23.2589
C 28.2987 34.1255 23.2652
C 31.1623 31.6855 23.2608
C 24.0281 29.189 23.2544
C 26.166 27.9566 23.2499
C 21.8921 25.4883 23.2547
C 24.0302 24.2545 23.2496
C 19.742 34.1438 23.2658
C 21.8909 27.9555 23.2545
C 26.1665 25.4899 23.2466
C 24.7507 35.3806 23.2633
C 21.8887 20.5443 23.2579
C 19.7483 21.7799 23.257
C 22.6048 24.2538 23.253
C 22.6026 29.19 23.2545
C 26.8784 26.7237 23.2497
C 26.1717 20.5455 23.2525
C 29.0262 32.9175 23.2623
C 17.6082 25.487 23.2573
C 28.311 21.7824 23.316
C 30.4505 23.0352 23.3959
C 26.8871 34.1499 23.2611
C 31.1621 24.2653 23.3473
C 24.7468 20.5451 23.2488
C 24.7441 23.0197 23.2475
C 20.4647 25.489 23.2545
C 18.3197 24.2528 23.2557
C 17.6079 27.9575 23.258
C 26.8797 24.2549 23.2539
C 20.464 27.9557 23.2539
C 26.879 29.1925 23.2498
C 21.8914 23.0187 23.2555
C 26.8862 21.7804 23.2616
C 24.7402 30.4251 23.2548
C 17.6103 30.4303 23.2614
C 31.1598 29.2031 23.2506
C 22.6048 21.783 23.253
C 20.4634 23.0188 23.2562
C 26.1698 23.02 23.2509
C 24.0299 21.7838 23.2487
C 31.1636 26.733 23.2591
C 19.7509 26.7224 23.2544
C 18.3201 31.6604 23.2615
C 19.7512 24.2524 23.2549
C 18.3185 26.7223 23.2554
C 29.0209 23.0196 23.3306
C 28.3047 26.7268 23.2525
C 26.1661 30.426 23.2545
C 22.6026 34.1341 23.2592
C 21.8888 30.4255 23.2548
C 30.4485 30.4304 23.2531
C 18.3193 29.1917 23.257
C 28.3065 24.2579 23.2807
C 30.4495 25.5 23.2856
C 20.4607 32.8983 23.2596
C 19.7503 29.1923 23.2549
C 30.4504 27.9649 23.2503
C 29.0183 25.4936 23.2685
C 24.023 34.1346 23.2586
C 28.3069 29.1936 23.2486
C 29.0201 27.9614 23.2508
C 20.4616 30.4258 23.2551
C 24.0255 31.6617 23.2545
C 19.747 31.6647 23.2582
C 28.3067 31.6662 23.2568
C 22.6011 31.6618 23.2544
C 26.1658 32.9003 23.2567
C 21.8856 32.9005 23.2571
C 26.8811 31.6671 23.2562
C 29.0206 30.4337 23.2512
C 24.741 32.9012 23.2552
H 23.4855 15.8319 26.6699
H 14.8874 20.7978 26.6691
H 25.9674 15.8321 26.6862
H 32.4164 19.5538 26.7102
H 33.6596 21.7044 26.7045
H 13.6477 22.9484 26.6857
H 14.888 32.5468 26.6682
H 13.6474 30.3958 26.6851
H 19.1862 18.3148 26.6332
H 21.3412 17.0717 26.6399
H 17.034 19.5592 26.6398
H 33.6632 26.6691 26.6343
H 19.1872 35.0288 26.6309
H 33.6613 31.6344 26.6702
H 23.4868 37.5094 26.6687
H 33.661 24.1811 26.6554
H 17.0336 33.7835 26.6379
H 28.1126 17.0775 26.6748
H 30.2659 18.3198 26.6808
H 33.6611 29.1568 26.6403
H 32.4192 33.783 26.687
H 21.3421 36.2701 26.6382
H 25.9689 37.5078 26.6864
H 13.6544 27.9146 26.675
H 13.6546 25.4291 26.6752
C 24.0427 16.7824 26.6415
C 25.4106 16.7826 26.6482
C 15.4322 21.7554 26.6411
C 31.8723 20.5129 26.6817
C 14.7493 22.9406 26.6488
C 32.5572 21.6976 26.6803
C 14.7491 30.4037 26.6478
C 15.4321 31.5887 26.6398
H 30.2668 35.0184 26.6766
H 28.114 36.2614 26.6765
C 21.8915 18.0279 26.6094
C 19.738 19.2698 26.6016
C 17.5862 20.5141 26.6087
C 32.5597 31.6416 26.642
C 24.0441 36.5589 26.6411
C 31.8749 32.8254 26.6503
C 27.5611 18.0315 26.6305
C 25.4119 36.5576 26.6497
C 29.7149 19.2749 26.6435
C 32.5576 24.1837 26.6285
C 32.5604 26.6695 26.6017
C 17.5864 32.829 26.6072
C 19.7384 34.0733 26.5999
C 14.7567 25.4283 26.6322
C 14.7566 27.9159 26.6319
C 32.5582 29.1555 26.6068
C 21.8924 35.3141 26.6075
C 23.2869 18.0114 26.6041
C 26.1635 18.0123 26.6121
C 16.8747 21.7146 26.6036
C 30.4308 20.476 26.6407
C 15.4382 24.2076 26.614
C 31.8728 22.9682 26.6382
C 15.4378 29.1364 26.6131
C 21.1491 19.2437 26.5881
C 16.8748 31.6289 26.6022
C 19.0102 20.4791 26.5874
C 28.2967 19.2445 26.6091
C 29.7168 34.0634 26.6341
C 27.5626 35.3074 26.6341
C 15.4393 26.672 26.6059
C 24.0125 26.6709 26.5403
C 31.8744 30.3719 26.6026
C 31.8772 25.4353 26.5963
C 23.2879 35.3301 26.6029
C 19.0106 32.8642 26.5861
C 31.8774 27.9048 26.5849
C 21.1499 34.0987 26.5862
C 30.4331 32.8631 26.6154
C 26.1649 35.3276 26.6151
C 23.3001 27.9047 26.5402
C 25.4372 26.6706 26.5393
C 23.3001 25.4373 26.54
C 28.2983 34.0944 26.6077
C 24.0123 29.1388 26.5377
C 26.15 27.9044 26.5372
C 24.0154 19.257 26.5678
C 21.875 27.9053 26.5374
C 26.1498 25.4367 26.5361
C 25.4355 19.2564 26.5716
C 17.5896 22.968 26.5683
C 21.875 25.4373 26.5377
C 24.0122 24.2031 26.5366
C 16.8795 24.1984 26.5736
C 29.7191 21.7299 26.5993
C 30.4296 22.96 26.5971
C 16.8795 29.1452 26.5727
C 17.5896 30.3753 26.5672
C 25.4378 29.1391 26.5374
C 21.162 26.6714 26.5372
C 25.4374 24.2023 26.5355
C 27.5781 20.4914 26.5692
C 21.8718 20.4928 26.5568
C 19.7311 21.7292 26.5563
C 30.4312 30.3799 26.5674
C 16.878 26.6718 26.566
C 24.016 34.0843 26.568
C 30.4337 25.4342 26.5644
C 29.7207 31.6102 26.5741
C 19.7313 31.614 26.5551
C 25.4366 34.0841 26.5739
C 30.4341 27.9058 26.5541
C 21.8722 32.8495 26.5552
C 21.1614 29.1411 26.5366
C 23.2989 30.3747 26.5368
C 27.5771 27.9043 26.536
C 27.5768 25.4366 26.5371
C 21.1614 24.2017 26.5371
C 26.1528 20.4906 26.5514
C 23.2988 22.9673 26.5366
C 23.2969 20.4913 26.5497
C 19.0177 22.9626 26.5498
C 28.2919 21.7256 26.564
C 17.5895 25.4366 26.5534
C 17.5895 27.907 26.5531
C 21.1571 21.7265 26.5471
C 21.8733 30.3757 26.5364
C 29.7214 24.2 26.5648
C 28.2905 26.6703 26.5365
C 21.8733 22.9668 26.5372
C 19.0178 30.3806 26.5491
C 27.5793 32.8486 26.5672
C 19.735 26.6716 26.5351
C 29.723 26.6702 26.5473
C 26.1504 22.9664 26.5339
C 21.1572 31.6162 26.5458
C 26.1511 30.3748 26.5358
C 29.7223 29.1406 26.5482
C 23.2974 32.8506 26.5493
C 24.0129 21.7307 26.5369
C 19.7331 24.2023 26.538
C 19.7332 29.1408 26.5375
C 28.29 24.1995 26.5441
C 25.4376 21.73 26.5372
C 19.0207 25.4361 26.5391
C 27.5776 22.9655 26.5437
C 19.0206 27.9073 26.539
C 24.0133 31.6111 26.5379
C 28.2933 31.6147 26.5543
C 26.1536 32.8502 26.554
C 28.2907 29.1412 26.5374
C 25.4381 31.6113 26.5396
C 27.5785 30.3752 26.5397
Li 31.3696 21.4725 21.4637
Li 16.0051 32.2746 21.5605
