628
592nano.out 0 0 0
C 24.0806 26.8197 16.2199
C 24.0462 26.7696 19.4617
C 24.7882 28.0611 16.2031
C 25.4728 26.767 19.4652
C 26.2299 25.5921 16.1729
C 26.1849 25.5279 19.4568
C 26.9382 26.8341 16.1621
C 27.6094 25.5252 19.4536
C 24.0656 29.2935 16.1534
C 24.0519 29.2441 19.4583
C 24.7717 30.5326 16.0579
C 25.4785 29.2451 19.4677
C 26.217 28.0664 16.1749
C 26.1861 28.0048 19.4743
C 26.9235 29.3067 16.0899
C 27.6104 28.005 19.4824
C 24.0263 26.7111 22.7624
C 24.012 26.683 26.0074
C 24.7386 27.9492 22.7673
C 25.4419 26.6852 26.0207
C 26.1699 25.4779 22.7565
C 26.1572 25.4487 26.0512
C 26.8836 26.7144 22.7595
C 27.586 25.4507 26.1216
C 24.0231 29.1867 22.7741
C 24.0077 29.1572 26.0754
C 24.7355 30.421 22.7926
C 25.4372 29.1589 26.092
C 26.1674 27.9497 22.7669
C 26.153 27.9244 26.0611
C 26.8818 29.1843 22.7773
C 27.581 27.9267 26.1347
C 30.5078 25.6163 15.825
C 30.4506 25.5266 19.4513
C 31.2162 26.8593 15.7593
C 31.8883 25.5236 19.4378
C 30.4605 25.4853 22.7872
C 30.4306 25.4549 26.3754
C 31.1783 26.716 22.7849
C 31.8731 25.4607 26.5038
C 28.3662 26.8417 16.0698
C 28.3185 26.7656 19.4676
C 29.0685 28.0822 15.9905
C 29.7477 26.7672 19.4577
C 28.3132 26.7172 22.7631
C 28.2957 26.6897 26.1646
C 29.0292 27.9513 22.7625
C 29.7188 26.6906 26.3042
C 30.5209 23.1467 15.733
C 30.4718 23.0475 19.4902
C 31.2283 24.3767 15.6997
C 31.9132 23.0453 19.5451
C 30.4664 23.0168 22.7276
C 30.4378 22.992 26.5149
C 31.1821 24.2466 22.7698
C 31.8686 23.0067 26.6832
C 28.3771 24.3697 15.9998
C 28.3247 24.2834 19.443
C 29.0852 25.6086 15.9874
C 29.7504 24.2849 19.4512
C 28.316 24.2473 22.7396
C 28.2987 24.2184 26.217
C 29.0295 25.4824 22.7678
C 29.7255 24.2272 26.3503
C 30.4762 30.5611 15.7324
C 30.4688 30.4835 19.5481
C 31.177 31.8107 15.5897
C 31.9074 30.4813 19.5447
C 30.4576 30.4219 22.7212
C 30.4285 30.3957 26.5062
C 31.1718 31.6686 22.6789
C 31.8677 30.3836 26.6363
C 24.0358 34.2271 15.6434
C 24.0636 34.1958 19.4675
C 24.7553 35.4666 15.5087
C 25.4899 34.2032 19.4139
C 26.1774 32.9937 15.7174
C 26.21 32.9578 19.4365
C 26.9009 34.2469 15.5487
C 27.6436 32.9561 19.4716
C 24.0229 34.1346 22.7568
C 24.0078 34.0873 26.5566
C 24.7378 35.3804 22.7417
C 25.4297 34.0896 26.5886
C 26.1569 32.8821 22.8672
C 26.1445 32.8566 26.4707
C 26.8715 34.1239 22.9753
C 27.5631 32.8618 26.5524
C 28.3305 31.7753 15.8098
C 28.3396 31.7205 19.5093
C 29.0433 33.0301 15.6892
C 29.7673 31.7213 19.5539
C 28.3074 31.6501 22.7804
C 28.2797 31.6304 26.4426
C 29.0313 32.8968 22.7633
C 29.7192 31.6288 26.5243
C 30.4936 28.0895 15.832
C 30.4541 28.0085 19.5004
C 31.1987 29.3392 15.7131
C 31.8947 28.0203 19.5254
C 30.4624 27.9508 22.7517
C 30.4207 27.9274 26.4283
C 31.1777 29.1959 22.7265
C 31.8646 27.9211 26.621
C 24.0517 31.7614 15.9432
C 24.0632 31.7192 19.4461
C 24.7585 32.9937 15.7784
C 25.4884 31.7216 19.4483
C 26.1989 30.5368 16.0199
C 26.1948 30.4812 19.468
C 26.9017 31.7705 15.8541
C 27.6216 30.4829 19.4928
C 24.018 31.6597 22.7885
C 24.0078 31.6234 26.2778
C 24.735 32.8927 22.8116
C 25.4339 31.6272 26.3001
C 26.1653 30.4183 22.7973
C 26.1491 30.3948 26.2029
C 26.8797 31.6551 22.8225
C 27.5744 30.396 26.2732
C 28.3473 29.3127 16.0029
C 28.3254 29.2459 19.5
C 29.0474 30.5554 15.8669
C 29.7495 29.244 19.5184
C 28.3133 29.1837 22.7678
C 28.2906 29.1619 26.2365
C 29.0252 30.4195 22.758
C 29.7148 29.1574 26.3751
H 14.475 21.8455 15.3993
H 14.9321 20.9002 19.518
H 14.3891 21.76 22.6399
H 14.9266 20.794 26.6304
H 22.1767 16 15.4296
C 22.7199 16.9469 15.4955
H 23.5027 15.9508 19.506
H 22.1198 15.8453 22.7158
C 22.6484 16.804 22.7281
H 23.4926 15.8782 26.756
H 15.7149 19.6858 15.429
C 16.257 20.6325 15.5013
H 17.0917 19.6667 19.4673
H 17.8732 18.4387 15.4361
C 18.4153 19.3836 15.5277
H 15.6238 19.6002 22.5724
C 16.1729 20.5456 22.606
H 17.0778 19.558 26.6359
H 17.7463 18.3437 22.6888
C 18.3086 19.2829 22.6908
H 20.0292 17.2234 15.3562
C 20.5656 18.1714 15.4615
H 21.3641 17.1847 19.284
H 19.9125 17.0738 23.0037
C 20.4537 18.0254 22.9691
H 21.3436 17.1123 26.6852
H 24.6657 16.0136 15.5286
H 24.6028 15.885 22.5379
H 13.6634 25.5517 19.0617
C 14.7491 25.5519 19.1929
H 13.6622 25.4197 26.7819
C 14.7533 25.4255 26.6993
H 13.6758 23.0413 19.317
H 14.4677 24.3239 15.4267
C 14.7698 23.0506 19.3689
H 13.6722 22.9452 26.7022
H 14.3903 24.2291 22.9795
C 14.765 22.9466 26.6636
H 13.7015 30.5157 19.587
H 14.4257 31.7197 15.5456
C 14.7948 30.5116 19.565
H 13.6576 30.3738 26.7834
H 14.3608 31.6365 22.7774
C 14.7506 30.3767 26.7441
H 13.6712 28.0516 19.4026
H 14.439 29.2382 15.5136
C 14.765 28.0339 19.4352
H 13.652 27.8945 26.7721
H 14.3761 29.1586 22.7588
C 14.7436 27.8945 26.7057
C 15.5657 21.8408 15.4729
C 15.4737 21.8495 19.4701
C 16.2438 23.0894 15.5481
C 16.8909 21.8257 19.5222
C 17.6822 20.5922 15.569
C 17.6319 20.6164 19.4247
C 18.3921 21.8511 15.6998
C 19.0375 20.5984 19.4813
C 15.5586 24.3251 15.5117
C 15.44 24.2899 19.3379
C 16.2414 25.5508 15.5153
C 16.889 24.299 19.4317
C 17.6808 23.0834 15.6897
C 17.6096 23.0724 19.4821
C 18.3923 24.3255 15.7961
C 19.0415 23.0735 19.4695
C 15.4837 21.752 22.6493
C 15.4645 21.7463 26.6262
C 16.1656 22.9918 22.6866
C 16.8866 21.7185 26.5725
C 17.5828 20.509 22.618
C 17.6189 20.5075 26.5764
C 18.3062 21.7587 22.6732
C 19.0222 20.4963 26.596
C 15.4868 24.2308 22.8925
C 15.4411 24.205 26.6485
C 16.1834 25.4641 22.9484
C 16.8834 24.2006 26.5316
C 17.602 22.9947 22.7161
C 17.5971 22.9714 26.5013
C 18.3206 24.232 22.7882
C 19.0288 22.9735 26.3872
C 21.9686 20.636 15.7814
C 21.909 20.6036 19.3798
C 22.6742 21.869 15.9455
C 23.3309 20.5914 19.4291
C 21.8891 20.5108 22.8111
C 21.8937 20.5155 26.471
C 22.6027 21.7517 22.7867
C 23.3126 20.5093 26.3939
C 19.8299 21.8546 15.7943
C 19.761 21.842 19.4607
C 20.5309 23.093 15.9513
C 21.1893 21.8326 19.4231
C 19.7404 21.7535 22.7374
C 19.7428 21.7486 26.4446
C 20.4574 22.9933 22.7665
C 21.1692 21.741 26.3551
C 21.9671 18.1595 15.5238
C 21.9111 18.1399 19.3341
C 22.6878 19.4051 15.6708
C 23.328 18.1048 19.509
C 21.8985 17.9997 22.8359
C 21.8905 18.0576 26.6107
C 22.6167 19.2676 22.801
C 23.3089 18.0348 26.6561
C 19.8343 19.365 15.5271
C 19.7713 19.3863 19.3307
C 20.5509 20.6251 15.6933
C 21.192 19.3585 19.2878
C 19.7091 19.2472 22.8051
C 19.7579 19.2864 26.5349
C 20.449 20.5107 22.7888
C 21.1696 19.2653 26.6363
C 21.9456 25.5718 16.1467
C 21.9021 25.5385 19.4556
C 22.6517 26.813 16.1908
C 23.3303 25.5343 19.4573
C 21.8856 25.4716 22.7716
C 21.8709 25.4433 26.0728
C 22.5964 26.7103 22.7661
C 23.3001 25.4439 26.0292
C 15.5312 29.2462 15.5867
C 15.4644 29.2709 19.5421
C 16.2091 30.487 15.6108
C 16.9085 29.2667 19.517
C 17.6709 28.0324 15.73
C 17.6183 28.0216 19.4632
C 18.3695 29.2645 15.8057
C 19.0499 28.0174 19.4473
C 15.4708 29.1648 22.7718
C 15.4301 29.1283 26.704
C 16.1446 30.4079 22.7482
C 16.8714 29.1384 26.5856
C 17.6074 27.9455 22.764
C 17.5895 27.8981 26.4656
C 18.3125 29.1843 22.7569
C 19.0124 27.906 26.2954
C 19.8013 26.8003 15.9975
C 19.7603 26.7791 19.4413
C 20.5059 28.0408 16.0519
C 21.1878 26.7758 19.4483
C 19.7471 26.7095 22.7826
C 19.7263 26.6751 26.2046
C 20.4563 27.95 22.7693
C 21.1541 26.6779 26.0955
C 21.9561 23.0995 16.0292
C 21.9026 23.0698 19.4458
C 22.6642 24.3382 16.132
C 23.3301 23.0635 19.4455
C 21.888 22.9932 22.7756
C 21.8786 22.973 26.1987
C 22.6 24.2308 22.7701
C 23.3073 22.9722 26.15
C 15.551 26.783 15.6072
C 15.4343 26.8009 19.3557
C 16.2266 28.0257 15.5633
C 16.8951 26.789 19.4111
C 17.6856 25.5534 15.7025
C 17.6085 25.5441 19.4206
C 18.3808 26.7948 15.824
C 19.0401 25.5431 19.4386
C 15.4922 26.7021 22.9166
C 15.4291 26.6541 26.6687
C 16.1656 27.9462 22.7423
C 16.8784 26.6612 26.5267
C 17.6174 25.4678 22.8423
C 17.5942 25.4373 26.4341
C 18.3177 26.7074 22.8026
C 19.0165 25.4398 26.2828
C 19.8138 24.3263 15.9562
C 19.7545 24.3102 19.4529
C 20.5207 25.5649 16.05
C 21.1861 24.3066 19.4554
C 19.7469 24.2288 22.7767
C 19.7342 24.2076 26.2576
C 20.4596 25.471 22.7823
C 21.1603 24.2069 26.157
C 24.1086 16.9544 15.5486
C 24.0597 16.8924 19.5042
C 24.8405 18.1723 15.6234
C 25.4469 16.88 19.5182
H 25.9908 15.9312 19.5079
H 26.8077 17.2638 15.5306
C 24.109 19.4114 15.7109
C 24.0434 19.3476 19.484
C 24.8195 20.652 15.838
C 25.4652 19.3358 19.5254
C 26.2551 18.2047 15.6129
C 26.1879 18.083 19.5514
C 26.9641 19.4152 15.627
C 27.6065 18.0981 19.5185
C 24.0476 16.8217 22.6249
C 24.046 16.8198 26.6838
C 24.7793 18.0392 22.6532
C 25.4318 16.8125 26.6495
H 25.9773 15.8655 26.6947
H 26.7508 17.1415 22.5722
C 24.0445 19.2829 22.7268
C 24.0314 19.2714 26.5079
C 24.7525 20.527 22.7269
C 25.4512 19.2651 26.49
C 26.1924 18.0793 22.6433
C 26.1778 18.0192 26.5968
C 26.9037 19.2935 22.6159
C 27.5938 18.0384 26.5885
H 28.1471 17.147 19.5294
H 28.1381 17.0935 26.6654
C 30.5147 20.6834 15.7145
C 30.4848 20.5451 19.5629
C 31.2382 21.9063 15.6181
C 31.903 20.5909 19.6133
C 30.4518 20.5533 22.713
C 30.4528 20.5135 26.6653
C 31.1821 21.7644 22.7392
C 31.8736 20.5594 26.7493
C 24.0923 24.3451 16.1567
C 24.044 24.2972 19.4534
C 24.8017 25.585 16.2021
C 25.4718 24.291 19.4497
C 26.2384 23.1222 16.0391
C 26.1849 23.053 19.4466
C 26.9494 24.3608 16.0908
C 27.6141 23.0476 19.441
C 24.029 24.2355 22.764
C 24.0172 24.2086 26.0639
C 24.7413 25.4744 22.7614
C 25.4465 24.2108 26.0738
C 26.1732 23.0073 22.7383
C 26.1636 22.9755 26.163
C 26.8859 24.2435 22.7441
C 27.5893 22.9814 26.2373
C 28.3801 21.9088 15.8037
C 28.328 21.8072 19.4626
C 29.0906 23.139 15.8607
C 29.7646 21.8075 19.4969
C 28.3197 21.7839 22.6825
C 28.3051 21.7479 26.3851
C 29.0311 23.0151 22.7139
C 29.7372 21.7572 26.5261
H 30.3019 18.3817 19.5744
H 31.0614 19.7391 15.6178
H 30.2905 18.352 26.7305
H 30.9969 19.6049 22.6771
C 24.1001 21.8775 15.9707
C 24.0461 21.8238 19.4455
C 24.8105 23.1136 16.0744
C 25.4713 21.8174 19.4563
C 26.2385 20.6611 15.7903
C 26.1846 20.5757 19.4878
C 26.9549 21.8931 15.8913
C 27.614 20.5664 19.4867
C 24.0303 21.7602 22.7621
C 24.0252 21.7391 26.24
C 24.743 23.0006 22.7555
C 25.4521 21.7391 26.2393
C 26.176 20.5386 22.6804
C 26.1677 20.506 26.3712
C 26.8925 21.7729 22.7061
C 27.5979 20.5086 26.4342
C 28.3816 19.4465 15.7035
C 28.3408 19.3009 19.538
C 29.1045 20.6608 15.6569
C 29.7566 19.3289 19.5345
C 28.3162 19.3236 22.7329
C 28.3263 19.2511 26.5752
C 29.0473 20.5355 22.6405
C 29.7383 19.2917 26.6423
H 32.4521 19.648 19.6697
H 33.1998 20.9912 15.5468
H 32.4191 19.613 26.8172
H 33.1362 20.8414 22.7702
H 14.9616 32.6619 19.5595
H 14.9061 32.5224 26.7988
C 15.5193 31.732 15.5611
C 15.4992 31.7091 19.5429
C 16.2057 32.9398 15.538
C 16.9136 31.7347 19.5154
C 17.6492 30.5029 15.6957
C 17.6304 30.4918 19.4883
C 18.3531 31.7374 15.6805
C 19.0622 30.4854 19.4267
H 15.6564 33.8847 15.4991
H 17.1058 33.8881 19.2084
C 17.6337 32.9879 15.5654
C 17.6536 32.9396 19.3124
C 18.3424 34.1958 15.5258
C 19.0698 32.95 19.2662
C 15.4528 31.6455 22.7811
C 15.4468 31.5711 26.754
C 16.1458 32.8619 22.8436
C 16.8652 31.603 26.722
C 17.591 30.4214 22.7557
C 17.5822 30.3677 26.5766
C 18.2957 31.6634 22.8049
C 19.0139 30.3742 26.4273
H 15.5868 33.8027 22.8794
H 17.0578 33.7655 26.8463
C 17.5578 32.9104 22.8604
C 17.5959 32.827 26.6505
C 18.2934 34.1578 22.9186
C 19.0096 32.8421 26.6431
C 21.9192 30.5203 16.0194
C 21.918 30.48 19.4359
C 22.6251 31.7552 15.9288
C 23.3453 30.4817 19.4483
C 21.8786 30.4257 22.7707
C 21.8637 30.3856 26.2132
C 22.5928 31.6625 22.7685
C 23.293 30.3897 26.1678
C 19.7791 31.7433 15.7871
C 19.7848 31.7087 19.3774
C 20.4781 32.9777 15.702
C 21.2074 31.7182 19.4177
C 19.7303 31.6682 22.8037
C 19.7281 31.5992 26.4736
C 20.4456 32.9095 22.8004
C 21.1496 31.6138 26.375
C 21.9316 28.047 16.1472
C 21.9078 28.0103 19.4479
C 22.6387 29.2872 16.1287
C 23.3354 28.0084 19.4575
C 21.8821 27.9484 22.7661
C 21.8655 27.9158 26.0743
C 22.5926 29.1893 22.7684
C 23.2942 27.9192 26.0319
C 19.7901 29.2743 15.9507
C 19.768 29.2478 19.4398
C 20.4943 30.5141 15.9367
C 21.1988 29.2464 19.4364
C 19.7395 29.1903 22.7684
C 19.7227 29.1435 26.2743
C 20.4451 30.4312 22.777
C 21.1488 29.1497 26.164
C 21.8852 35.4685 15.5438
C 21.9228 35.4099 19.4893
C 22.6281 36.6826 15.5177
C 23.3378 35.4431 19.5129
C 21.884 35.3978 22.7277
C 21.8647 35.2999 26.6615
C 22.6173 36.6013 22.7286
C 23.2797 35.3296 26.6472
H 19.9255 36.3892 15.4772
H 21.3742 36.3558 19.5231
H 19.9275 36.3319 22.8622
H 21.3157 36.2442 26.7349
C 21.9043 32.9829 15.7625
C 21.9275 32.9504 19.4596
C 22.6168 34.2265 15.6464
C 23.3507 32.9549 19.4608
C 21.8761 32.9043 22.7519
C 21.8714 32.8454 26.484
C 22.5999 34.1439 22.7237
C 23.292 32.8506 26.4242
H 17.7901 35.137 15.4445
H 17.7434 35.1083 22.9206
C 19.745 34.2287 15.5643
C 19.8003 34.1649 19.2979
C 20.4728 35.4442 15.5372
C 21.2124 34.2017 19.4906
C 19.7316 34.178 22.8505
C 19.7317 34.0619 26.629
C 20.4619 35.3768 22.8231
C 21.155 34.0935 26.6646
C 32.6572 21.9415 15.5869
C 32.5922 21.8102 19.6327
C 33.3506 23.1424 15.5676
H 33.6831 21.8154 19.6939
C 32.6716 24.3867 15.5762
C 32.5902 24.2985 19.4555
C 33.3586 25.629 15.576
H 33.6931 24.299 19.4389
H 34.4438 23.1457 15.5297
C 32.5995 21.7938 22.7713
C 32.5535 21.7556 26.7542
C 33.3047 22.9972 22.8035
H 33.646 21.7705 26.823
C 32.631 24.2469 22.8342
C 32.5574 24.2356 26.5974
C 33.3195 25.4842 22.975
H 33.6476 24.241 26.6941
H 34.3995 22.9867 22.8286
C 32.6366 29.343 15.5927
C 32.5832 29.2358 19.5298
C 33.3046 30.5983 15.5471
H 33.6753 29.2261 19.5704
H 34.4311 28.1274 15.5271
C 32.6213 29.1959 22.7056
C 32.5516 29.152 26.6359
C 33.2931 30.4411 22.7093
H 33.6421 29.1499 26.7266
H 34.4114 27.9701 22.7748
C 32.6711 26.8668 15.6133
C 32.5725 26.7774 19.2973
C 33.3398 28.1133 15.5962
H 34.4497 25.6319 15.51
C 32.6386 26.7208 22.8414
C 32.5497 26.6929 26.561
C 33.3163 27.9578 22.7538
H 34.4168 25.4796 23.0405
H 22.0771 37.6272 15.4897
H 23.5261 37.5981 19.5947
H 22.0728 37.55 22.7304
H 23.4596 37.4881 26.7329
C 24.0089 36.6824 15.4976
C 24.0737 36.6557 19.5304
H 24.5604 37.627 15.456
C 25.4712 36.6644 19.432
C 26.168 35.4533 15.5767
C 26.2145 35.4613 19.3485
H 26.7108 36.4022 15.5185
C 27.6503 35.4325 19.2293
H 26.0137 37.6141 19.4215
C 24.0072 36.5932 22.7361
C 24.0145 36.5459 26.7147
H 24.5623 37.5363 22.7294
C 25.4043 36.5497 26.753
C 26.153 35.3449 22.9292
C 26.1548 35.3343 26.7235
H 26.7009 36.2945 23.0157
C 27.5554 35.3186 26.7684
H 25.9501 37.4957 26.8043
H 30.3384 35.1283 19.4795
H 30.2461 35.0416 26.7755
H 28.197 36.3737 19.1209
H 28.0954 36.2662 26.8554
C 30.4488 33.0176 15.6521
C 30.4933 32.9711 19.5697
H 30.9873 33.9667 15.5639
C 31.9127 32.9322 19.5624
C 30.4374 32.8817 22.8021
C 30.4319 32.8851 26.6526
H 30.9795 33.8323 22.7634
C 31.8576 32.8413 26.7102
C 28.3091 34.2301 15.5995
C 28.3893 34.2118 19.4108
C 29.7801 34.1867 19.5037
C 28.2912 34.1028 22.9326
C 28.2842 34.1203 26.7071
C 29.701 34.097 26.6993
C 32.604 31.7845 15.5442
C 32.5986 31.7195 19.5434
H 33.1353 32.7399 15.4875
H 33.6918 31.7063 19.5273
H 34.3981 30.602 15.4992
H 32.4612 33.8789 19.5505
C 32.5913 31.6391 22.6952
C 32.5477 31.634 26.7258
H 33.1287 32.592 22.6796
H 33.6388 31.6273 26.7947
H 34.3874 30.4462 22.7137
H 32.4017 33.7867 26.7814
H 33.6399 26.6942 26.66
H 19.2147 18.3377 26.5979
H 19.1889 34.9946 26.8408
H 14.3955 26.706 23.01
H 28.8416 35.052 23.0118
H 33.6739 26.7834 19.2044
H 28.8663 18.3788 22.6667
H 19.2122 18.4387 19.2634
H 19.2591 35.1171 19.1898
H 28.8499 35.1781 15.5193
H 14.459 26.7771 15.5266
H 28.9314 18.5044 15.6056
Li 31.157 31.815 17.6926
Li 16.0535 22.9546 24.7636
Li 23.3197 18.0389 17.43
Li 24.7719 35.4657 24.8282
Li 31.8949 23.0774 24.6137
Li 16.8435 31.8152 17.4364
Li 27.1232 34.0992 17.5674
Li 21.127 34.4281 17.4376
Li 31.9984 27.9783 24.5956
Li 15.9388 27.9573 24.7987
Li 18.7703 20.5394 24.548
Li 29.3067 20.3935 24.7032
Li 19.0981 20.3405 17.4303
Li 26.7981 19.1522 17.6743
Li 21.1408 19.2118 24.6341
Li 26.8977 19.0009 24.6707
Li 29.0169 33.1195 24.8036
Li 21.3139 34.2075 24.6146
Li 16.1237 28.2425 17.6156
Li 16.1874 25.4269 17.5343
Li 16.7671 31.5511 24.6441
Li 32.1215 28.2489 17.4905
Li 29.1426 20.4393 17.6868
Li 32.1974 25.4506 17.4414
Li 24.6026 35.5848 17.5957
Li 31.4043 31.6428 24.7739
Li 16.7016 21.8338 17.4291
Li 23.5487 17.8555 24.5662
Li 31.4519 21.8045 17.7018
Li 18.4431 34.0891 20.9221
Li 14.9571 25.4848 21.2272
Li 18.3947 33.9519 24.9249
Li 27.5085 35.1611 21.2563
Li 20.541 18.2336 20.9463
Li 33.3228 25.6939 20.9609
Li 33.2006 25.661 24.8674
