637
592nano.out 0 0 0
C 24.0907 26.845 16.0232
C 24.0435 26.753 19.1353
C 24.8057 28.0834 16.0198
C 25.4752 26.7497 19.1139
C 26.2374 25.6095 16.0202
C 26.1917 25.5124 19.1195
C 26.9563 26.8483 16.0101
C 27.6295 25.5085 19.143
C 24.0876 29.3178 16.0104
C 24.0463 29.2317 19.1996
C 24.8014 30.5564 15.9851
C 25.4845 29.2294 19.2082
C 26.2386 28.0854 16.0108
C 26.1998 27.984 19.1076
C 26.9511 29.3212 15.9827
C 27.6391 27.9807 19.1325
C 24.0217 26.7458 23.0495
C 24.0434 26.705 26.1687
C 24.7376 27.9899 23.0466
C 25.4741 26.7158 26.1812
C 26.168 25.4943 23.0613
C 26.1972 25.4824 26.2181
C 26.8875 26.738 23.0178
C 27.626 25.4896 26.2735
C 24.023 29.2394 23.0169
C 24.02 29.1849 26.1897
C 24.7372 30.4737 22.9628
C 25.4545 29.1968 26.185
C 26.1707 27.9828 23.0506
C 26.1787 27.9611 26.1843
C 26.8854 29.23 23.04
C 27.6063 27.9684 26.2244
C 30.528 25.6005 15.8383
C 30.4664 25.4899 19.4422
C 31.2504 26.8336 15.8355
C 31.9045 25.4803 19.6146
C 30.4606 25.4909 22.8409
C 30.4663 25.5047 26.5082
C 31.1741 26.7326 22.7676
C 31.9106 25.5134 26.6373
C 28.3847 26.8472 15.982
C 28.351 26.7413 19.1913
C 29.1005 28.086 15.9546
C 29.7717 26.7346 19.361
C 28.3174 26.7314 22.9501
C 28.328 26.7308 26.2795
C 29.0298 27.9714 22.876
C 29.7562 26.7384 26.3944
C 30.5128 23.1313 15.6859
C 30.4681 23.0102 19.3649
C 31.2332 24.3585 15.693
C 31.9042 23.0094 19.5019
C 30.4537 23.0069 22.8329
C 30.4897 23.0277 26.6028
C 31.1735 24.2417 22.8111
C 31.9252 23.0411 26.7027
C 28.3839 24.3737 15.9499
C 28.3408 24.2576 19.2044
C 29.0976 25.6044 15.9377
C 29.7628 24.2565 19.3353
C 28.3224 24.2517 23.0081
C 28.3461 24.2524 26.3642
C 29.0334 25.4925 22.9346
C 29.7678 24.2627 26.4821
C 30.5228 30.5651 15.8107
C 30.4851 30.4496 19.5285
C 31.245 31.8338 15.7113
C 31.9237 30.4358 19.6435
C 30.4561 30.4432 22.7377
C 30.454 30.4559 26.3587
C 31.1711 31.6799 22.7273
C 31.9069 30.4591 26.3959
C 24.0702 34.2677 15.8999
C 24.051 34.175 19.3668
C 24.7987 35.5207 15.8756
C 25.4644 34.1777 19.5115
C 26.2135 33.0239 15.8123
C 26.1889 32.94 19.4811
C 26.9281 34.2813 15.6915
C 27.6201 32.9467 19.5091
C 24.0475 34.1853 22.8362
C 23.9915 34.1236 26.6119
C 24.787 35.4302 22.7622
C 25.4158 34.1447 26.5589
C 26.1738 32.9256 22.7628
C 26.1419 32.9139 26.4123
C 26.9043 34.169 22.6445
C 27.5735 32.9273 26.4124
C 28.3642 31.7916 15.7913
C 28.3391 31.7005 19.4596
C 29.0791 33.0459 15.6839
C 29.7782 31.6904 19.5171
C 28.3147 31.6747 22.7482
C 28.2987 31.6906 26.3396
C 29.0426 32.9148 22.6203
C 29.7326 31.6942 26.3949
C 30.5385 28.0812 15.8832
C 30.4731 27.9729 19.4788
C 31.253 29.3193 15.824
C 31.9109 27.9664 19.6518
C 30.4549 27.9691 22.7654
C 30.4555 27.9825 26.4277
C 31.168 29.2149 22.7069
C 31.8988 27.9925 26.5698
C 24.0778 31.7934 15.9545
C 24.0553 31.7001 19.3359
C 24.7884 33.0266 15.8921
C 25.4804 31.6998 19.3863
C 26.2268 30.5569 15.9595
C 26.1975 30.4635 19.3164
C 26.9382 31.7967 15.8601
C 27.633 30.4634 19.3448
C 24.0259 31.7095 22.9093
C 24.0087 31.659 26.3444
C 24.7509 32.9412 22.8368
C 25.4336 31.672 26.3069
C 26.1702 30.4664 22.9541
C 26.1589 30.4378 26.2251
C 26.8871 31.6939 22.825
C 27.5911 30.4465 26.2469
C 28.3846 29.3194 15.95
C 28.353 29.2267 19.2704
C 29.0941 30.5646 15.8631
C 29.7748 29.2125 19.4192
C 28.3202 29.2139 22.9173
C 28.3122 29.2142 26.2512
C 29.0283 30.4471 22.7963
C 29.7425 29.2167 26.3354
H 14.4147 21.8932 15.2652
H 14.9084 20.8682 19.7015
H 14.3492 21.8386 22.6031
H 15.0086 20.734 26.826
H 22.1681 16.0182 15.6055
C 22.7174 16.964 15.6281
H 23.4929 15.9229 19.4445
H 22.0386 15.9189 22.708
C 22.5895 16.864 22.742
H 23.588 15.8654 26.2837
H 15.6687 19.6958 15.553
C 16.2142 20.6429 15.5842
H 17.0954 19.6178 19.3217
H 17.8722 18.4338 15.6107
C 18.3955 19.3948 15.6426
H 15.5546 19.6952 22.986
C 16.1195 20.6301 22.9142
H 17.1803 19.5259 26.9305
H 17.721 18.4071 23.3217
C 18.2698 19.34 23.1641
H 20.0267 17.2374 15.5326
C 20.5598 18.1926 15.5562
H 21.3558 17.1631 19.5744
H 19.8922 17.1392 22.9096
C 20.428 18.0927 22.8666
H 21.4342 17.0938 26.6225
H 24.6411 16.0214 15.8023
H 24.5199 15.9204 22.7977
H 13.6477 25.5189 19.1791
C 14.7411 25.5136 19.2309
H 13.6801 25.3567 26.5223
C 14.7735 25.3705 26.5041
H 13.6551 23.0186 19.4478
H 14.4322 24.4223 15.4369
C 14.7495 23.0235 19.4529
H 13.7273 22.8616 26.5991
H 14.3598 24.324 22.5648
C 14.8212 22.8773 26.6027
H 13.6882 30.5334 19.3397
H 14.445 31.7733 15.3591
C 14.7812 30.5194 19.358
H 13.6226 30.3178 26.2946
H 14.376 31.6943 23.0001
C 14.7161 30.3258 26.3243
H 13.6486 28.0235 19.1853
H 14.459 29.2921 15.3167
C 14.7403 28.0131 19.2054
H 13.6462 27.8302 26.4416
H 14.3783 29.23 23.1249
C 14.741 27.841 26.428
C 15.5019 21.8886 15.4053
C 15.4551 21.8148 19.6033
C 16.1888 23.1387 15.5022
C 16.8656 21.7854 19.552
C 17.6368 20.596 15.641
C 17.6202 20.5763 19.4536
C 18.3695 21.8753 15.6849
C 19.036 20.5684 19.5121
C 15.5256 24.3929 15.5045
C 15.4209 24.27 19.3835
C 16.2355 25.6115 15.4533
C 16.8734 24.27 19.4418
C 17.6471 23.1234 15.6691
C 17.5886 23.0361 19.4923
C 18.3681 24.3608 15.7379
C 19.0186 23.0429 19.4697
C 15.4376 21.8336 22.6978
C 15.539 21.6868 26.7444
C 16.1281 23.0731 22.6424
C 16.9613 21.6749 26.7517
C 17.5299 20.5728 22.9863
C 17.7119 20.4786 26.8433
C 18.2671 21.8157 22.8787
C 19.1176 20.4786 26.8392
C 15.4529 24.3167 22.6189
C 15.476 24.1372 26.5377
C 16.1428 25.5442 22.6521
C 16.9256 24.1505 26.492
C 17.5688 23.0541 22.7606
C 17.6593 22.9315 26.5824
C 18.2918 24.2896 22.7837
C 19.0897 22.9501 26.5185
C 21.9586 20.6593 15.7177
C 21.9003 20.5706 19.5006
C 22.6679 21.8962 15.8636
C 23.3272 20.5656 19.4333
C 21.8574 20.5573 22.8703
C 21.9727 20.5087 26.5417
C 22.5734 21.7878 22.9478
C 23.3885 20.514 26.3924
C 19.8016 21.8812 15.7399
C 19.7519 21.8179 19.5072
C 20.5152 23.1265 15.854
C 21.175 21.8017 19.4625
C 19.7066 21.8039 22.9181
C 19.8231 21.735 26.6413
C 20.4252 23.0387 22.9347
C 21.2432 21.7346 26.5025
C 21.9695 18.1779 15.5713
C 21.9019 18.1091 19.55
C 22.6887 19.4257 15.6194
C 23.3179 18.0786 19.4666
C 21.8531 18.0726 22.7578
C 21.979 18.0419 26.5753
C 22.5807 19.3158 22.8021
C 23.3864 18.0205 26.3903
C 19.8196 19.3842 15.5945
C 19.7657 19.3515 19.4647
C 20.5368 20.6463 15.6767
C 21.1862 19.3128 19.5401
C 19.6996 19.2926 22.9811
C 19.8531 19.2743 26.7578
C 20.4246 20.555 22.9247
C 21.2649 19.249 26.7103
C 21.9448 25.6027 15.9791
C 21.8787 25.5143 19.2341
C 22.6612 26.8429 16.0054
C 23.3206 25.5149 19.1769
C 21.8596 25.5115 23.025
C 21.9114 25.4464 26.2096
C 22.581 26.7505 23.0233
C 23.3407 25.4607 26.1907
C 15.549 29.2994 15.4129
C 15.4394 29.2741 19.2866
C 16.2232 30.5422 15.4739
C 16.8949 29.2657 19.3259
C 17.6839 28.0778 15.5977
C 17.6051 28.0094 19.2956
C 18.3831 29.3151 15.6972
C 19.0336 28.0043 19.3126
C 15.4711 29.2324 23.0669
C 15.4069 29.0746 26.3372
C 16.1544 30.4645 22.9864
C 16.8624 29.101 26.3216
C 17.5966 28.0031 22.9437
C 17.5934 27.87 26.3191
C 18.305 29.2353 22.9205
C 19.0239 27.8894 26.2587
C 19.8074 26.8426 15.8613
C 19.7439 26.7589 19.3081
C 20.5161 28.0788 15.9117
C 21.1622 26.7586 19.2508
C 19.7289 26.7599 22.8927
C 19.7546 26.6598 26.2388
C 20.4408 27.9964 22.9236
C 21.1831 26.6765 26.196
C 21.9439 23.1296 15.9153
C 21.8889 23.0353 19.3551
C 22.6584 24.3661 15.9845
C 23.3216 23.0325 19.2936
C 21.8553 23.0294 23.0049
C 21.9398 22.9744 26.3365
C 22.5709 24.2615 23.1083
C 23.365 22.9854 26.2746
C 15.5585 26.8448 15.4499
C 15.4149 26.7562 19.239
C 16.2447 28.0819 15.4016
C 16.8787 26.7575 19.2886
C 17.6766 25.6028 15.6274
C 17.5914 25.5142 19.3845
C 18.3844 26.8419 15.7068
C 19.0234 25.515 19.365
C 15.4617 26.7695 22.8729
C 15.4377 26.6195 26.4751
C 16.152 28.0029 23.0559
C 16.8942 26.6352 26.4031
C 17.591 25.5296 22.7506
C 17.6249 25.4037 26.3981
C 18.3011 26.763 22.855
C 19.0549 25.4162 26.3108
C 19.8018 24.3599 15.8575
C 19.7277 24.2835 19.3958
C 20.5179 25.6007 15.9088
C 21.1649 24.2801 19.3228
C 19.7178 24.2787 22.8891
C 19.7828 24.1904 26.3519
C 20.4362 25.5156 22.9284
C 21.2116 24.2034 26.2881
C 24.0896 16.9647 15.7401
C 24.0471 16.863 19.3726
C 24.8302 18.1806 15.8039
C 25.4111 16.8535 19.1903
H 25.9535 15.9048 19.123
H 26.7748 17.2479 15.9212
C 24.1067 19.4235 15.7747
C 24.0358 19.3194 19.387
C 24.8082 20.6602 15.9015
C 25.4468 19.311 19.2067
C 26.2288 18.1962 15.8942
C 26.1575 18.0625 19.1003
C 26.9554 19.3971 15.9413
C 27.5733 18.0745 19.0279
C 23.97 16.8656 22.7965
C 24.1334 16.8133 26.2972
C 24.7073 18.0713 22.8731
C 25.5338 16.8174 26.2636
H 26.0823 15.8719 26.2285
H 26.6634 17.1373 22.9691
C 23.9995 19.3142 22.8667
C 24.1116 19.276 26.3485
C 24.7127 20.5509 22.9407
C 25.537 19.2831 26.3217
C 26.1213 18.088 22.9511
C 26.2795 18.0342 26.3244
C 26.8448 19.286 23.0093
C 27.6793 18.0652 26.4589
H 28.1042 17.1203 18.9662
H 28.2325 17.1212 26.4696
C 30.5062 20.6673 15.6612
C 30.4777 20.5115 19.1515
C 31.2172 21.8809 15.512
C 31.8904 20.5508 19.3153
C 30.4264 20.5339 22.7957
C 30.5175 20.5392 26.7098
C 31.1687 21.7541 22.7502
C 31.9357 20.5897 26.7197
C 24.0912 24.3703 16.0141
C 24.0366 24.2736 19.2054
C 24.807 25.6073 16.0262
C 25.4738 24.2684 19.184
C 26.234 23.1391 16.0102
C 26.184 23.026 19.2194
C 26.9515 24.3737 16.0071
C 27.6189 23.0183 19.2045
C 24.0139 24.2627 23.0835
C 24.0665 24.2281 26.2188
C 24.7316 25.4983 23.0629
C 25.4946 24.2383 26.2306
C 26.1531 23.0122 23.0447
C 26.2182 23.0045 26.2907
C 26.8839 24.2545 23.1025
C 27.6422 23.0123 26.3727
C 28.3829 21.9 15.9132
C 28.3248 21.7762 19.1838
C 29.0934 23.1338 15.8591
C 29.7593 21.7763 19.2195
C 28.2957 21.778 22.9436
C 28.3589 21.777 26.5037
C 29.0263 23.0103 22.9361
C 29.7922 21.7894 26.6187
H 30.2817 18.353 18.9712
H 31.0519 19.7201 15.6079
H 30.3572 18.3759 26.6962
H 30.9616 19.5797 22.7488
C 24.0894 21.8978 15.9305
C 24.0453 21.7962 19.3362
C 24.8064 23.1349 16.0025
C 25.4646 21.7899 19.2697
C 26.2286 20.6562 15.9718
C 26.1743 20.5491 19.2063
C 26.9523 21.8973 15.9944
C 27.6009 20.5373 19.1454
C 23.9996 21.7861 22.9694
C 24.0915 21.7524 26.3031
C 24.7248 23.0194 23.0372
C 25.5172 21.7608 26.3026
C 26.1357 20.546 22.9801
C 26.2406 20.5282 26.3606
C 26.8643 21.7724 22.9907
C 27.6574 20.5322 26.4879
C 28.3739 19.4294 15.858
C 28.3227 19.2748 19.031
C 29.1088 20.6377 15.839
C 29.7383 19.2995 19.0275
C 28.2689 19.3098 22.86
C 28.3879 19.2734 26.5739
C 29.0102 20.5259 22.8661
C 29.8004 19.3173 26.6787
H 32.4407 19.6063 19.2943
H 33.1769 20.9648 15.371
H 32.4895 19.6464 26.7296
H 33.1173 20.8349 22.6127
H 14.9505 32.6655 19.5681
H 14.8616 32.4884 26.3776
C 15.5365 31.7846 15.4301
C 15.488 31.716 19.4823
C 16.2216 33.0013 15.494
C 16.9067 31.7411 19.5157
C 17.662 30.5506 15.615
C 17.6179 30.492 19.4152
C 18.3653 31.7887 15.656
C 19.0483 30.4837 19.3835
H 15.6714 33.9463 15.4568
H 17.1054 33.9055 19.5177
C 17.6441 33.0473 15.5629
C 17.6452 32.9546 19.4462
C 18.3733 34.2624 15.5803
C 19.0593 32.972 19.4647
C 15.4674 31.7043 22.9532
C 15.4123 31.5434 26.3734
C 16.1489 32.903 22.8643
C 16.8299 31.5894 26.4326
C 17.5845 30.4677 22.91
C 17.5654 30.3415 26.3588
C 18.2894 31.6982 22.8117
C 18.9985 30.356 26.3647
H 15.6023 33.8506 22.8574
H 17.0004 33.7487 26.6176
C 17.5658 32.943 22.8036
C 17.5577 32.8071 26.5695
C 18.2932 34.1707 22.8541
C 18.9555 32.8282 26.6488
C 21.9399 30.5552 15.9449
C 21.9045 30.4709 19.2854
C 22.6507 31.7931 15.9336
C 23.3344 30.4686 19.2727
C 21.8775 30.4795 22.9208
C 21.8649 30.3924 26.3012
C 22.5962 31.7175 22.9093
C 23.2955 30.4121 26.2623
C 19.8029 31.7936 15.7568
C 19.7711 31.7114 19.3886
C 20.5154 33.0328 15.7423
C 21.1953 31.7097 19.3064
C 19.7311 31.7083 22.8314
C 19.7041 31.5917 26.4872
C 20.4416 32.9543 22.8959
C 21.1357 31.6186 26.446
C 21.9459 28.0798 15.9842
C 21.8882 27.9972 19.2074
C 22.6574 29.3174 15.993
C 23.3238 27.996 19.1154
C 21.8668 27.9942 22.984
C 21.8865 27.9231 26.184
C 22.5869 29.2444 22.9853
C 23.3169 27.9388 26.1694
C 19.803 29.3187 15.8442
C 19.7514 29.2369 19.3241
C 20.5144 30.5554 15.8675
C 21.182 29.2345 19.2777
C 19.7332 29.238 22.8942
C 19.7246 29.1306 26.2687
C 20.4461 30.4727 22.8782
C 21.1591 29.1511 26.2374
C 21.9061 35.5215 15.8587
C 21.9333 35.3931 19.1463
C 22.6532 36.7356 15.9177
C 23.338 35.4118 19.283
C 21.8989 35.4712 22.9503
C 21.8366 35.3147 26.7973
C 22.6597 36.6662 22.9238
C 23.2703 35.3623 26.7981
H 19.9566 36.4438 15.7008
H 21.3897 36.3418 19.0937
H 19.915 36.3881 22.6887
H 21.2728 36.2406 26.966
C 21.9334 33.0283 15.8589
C 21.922 32.9389 19.2336
C 22.6436 34.2692 15.8872
C 23.3416 32.9374 19.3064
C 21.8857 32.9577 22.9247
C 21.8561 32.8527 26.5497
C 22.6194 34.201 22.9401
C 23.2898 32.8795 26.5038
H 17.8227 35.2069 15.5442
H 17.7269 35.1073 22.8457
C 19.7889 34.2943 15.6453
C 19.7874 34.1759 19.2972
C 20.506 35.4976 15.7215
C 21.2056 34.1931 19.128
C 19.702 34.2184 22.8781
C 19.6969 34.0634 26.6193
C 20.4503 35.4478 22.8532
C 21.1357 34.0962 26.6276
C 32.6391 21.9157 15.44
C 32.5754 21.7569 19.5001
C 33.3404 23.1131 15.4753
H 33.6605 21.7507 19.6263
C 32.6744 24.3571 15.5763
C 32.586 24.2502 19.5975
C 33.3754 25.593 15.6351
H 33.6718 24.2463 19.7325
H 34.4334 23.1106 15.4267
C 32.5794 21.7851 22.6686
C 32.6161 21.7996 26.7191
C 33.2925 22.9932 22.6925
H 33.7112 21.8137 26.7389
C 32.6253 24.2473 22.7337
C 32.6069 24.2869 26.6013
C 33.313 25.4891 22.7423
H 33.7006 24.2972 26.6685
H 34.3849 22.9859 22.641
C 32.7265 29.3157 15.7583
C 32.6008 29.1898 19.6571
C 33.3924 30.5672 15.7154
H 33.6889 29.183 19.7701
H 34.4964 28.0562 15.729
C 32.6088 29.2109 22.6811
C 32.5896 29.2183 26.4905
C 33.2846 30.4588 22.7389
H 33.6838 29.2177 26.5295
H 34.3977 27.9828 22.7099
C 32.7071 26.8286 15.7209
C 32.5923 26.7221 19.5659
C 33.4031 28.0654 15.7617
H 34.4674 25.5845 15.5702
C 32.6319 26.7332 22.7105
C 32.5877 26.755 26.553
C 33.3034 27.9732 22.7113
H 34.4061 25.4865 22.7086
H 22.1065 37.6826 15.9362
H 23.5182 37.5672 19.2971
H 22.1344 37.6263 22.9207
H 23.4404 37.5161 26.9179
C 24.055 36.7321 15.9257
C 24.0709 36.6253 19.3642
H 24.603 37.6779 15.9535
C 25.4396 36.6317 19.5149
C 26.2151 35.4903 15.7721
C 26.1845 35.4224 19.586
H 26.7647 36.4364 15.7483
C 27.6033 35.4048 19.5977
H 25.9857 37.5787 19.5626
C 24.0609 36.6492 22.8182
C 23.994 36.5753 26.8308
H 24.6212 37.5877 22.8016
C 25.39 36.598 26.7639
C 26.198 35.3863 22.6965
C 26.1349 35.4011 26.6691
H 26.7565 36.3226 22.6098
C 27.5532 35.3896 26.6233
H 25.9314 37.5482 26.8075
H 30.3131 35.1126 19.6084
H 30.2455 35.1229 26.6531
H 28.1419 36.3559 19.6235
H 28.0904 36.3392 26.7012
C 30.4915 33.0409 15.7901
C 30.4945 32.949 19.5984
H 31.025 33.9963 15.75
C 31.9148 32.897 19.6746
C 30.4477 32.889 22.6717
C 30.4573 32.9639 26.4989
H 30.9957 33.8345 22.6103
C 31.8776 32.928 26.4616
C 28.3474 34.2508 15.7384
C 28.3473 34.2035 19.5864
C 29.7647 34.1685 19.5685
C 28.3152 34.1336 22.698
C 28.2947 34.1889 26.5603
C 29.7085 34.1741 26.5691
C 32.6685 31.8014 15.7047
C 32.6021 31.6808 19.723
H 33.2116 32.7494 15.6654
H 33.6905 31.6729 19.8186
H 34.4849 30.581 15.6973
H 32.4634 33.8401 19.7469
C 32.5905 31.6469 22.7594
C 32.5832 31.7083 26.3967
H 33.1267 32.6003 22.7792
H 33.6761 31.7111 26.3671
H 34.3796 30.454 22.7532
H 32.4224 33.8758 26.4802
H 33.6811 26.7627 26.6195
H 19.3104 18.3257 26.8239
H 19.1495 35.0032 26.7674
H 14.3665 26.7698 22.8899
H 28.8651 35.0736 22.5941
H 33.6791 26.7185 19.7
H 28.8151 18.3599 22.8713
H 19.2187 18.4046 19.3526
H 19.2455 35.1277 19.3058
H 28.8918 35.2006 15.7028
H 14.4675 26.8466 15.3608
H 28.917 18.4813 15.8137
Li 16.9638 21.7942 13.8385
Li 16.2849 25.3597 17.5106
Li 31.2325 31.6443 28.1584
Li 19.118 20.4973 17.4874
Li 31.9927 30.5518 14.0238
Li 22.4835 19.2044 17.662
Li 16.0612 30.2805 28.1013
Li 18.8501 32.8389 24.6264
Li 24.8755 17.9734 28.0666
Li 16.0468 25.4122 24.664
Li 27.5864 20.6568 14.1755
Li 18.9332 20.6268 24.8026
Li 23.3503 35.564 14.1493
Li 19.0084 33.2125 17.4516
Li 16.1264 28.1622 17.4397
Li 21.3566 19.1256 24.6683
Li 29.2697 20.4118 24.8235
Li 32.056 25.5157 24.593
Li 23.6157 35.5412 24.7008
Li 26.8026 34.412 24.7
Li 26.7867 34.4018 17.7335
Li 21.2255 34.277 21.1356
Li 31.968 28.2149 24.536
Li 26.8182 19.0661 20.9557
Li 16.2501 22.4069 24.7352
Li 32.187 25.3893 17.5617
Li 29.1427 33.0657 17.7228
Li 32.1364 28.119 17.631
Li 32.0228 22.7843 24.609
Li 16.0369 28.0409 21.0575
Li 29.2052 33.0887 24.648
Li 29.1845 20.3566 20.8919
Li 16.6422 31.7549 17.4052
Li 23.3196 27.9939 21.1895
Li 31.427 21.8792 17.5431
Li 26.9464 24.4028 21.0129
Li 18.3577 19.3914 21.1177
Li 22.6932 24.3627 21.0724
Li 31.5123 31.6742 17.7758
Li 27.057 28.6871 21.0537
Li 20.6929 33.5188 28.4849
Li 20.6121 35.1462 24.8699
Li 16.0481 22.2626 17.5227
Li 23.1478 30.1583 28.1742
Li 15.8728 32.0101 21.296
