648
592nano.out 0 0 0
C 24.0612 26.8367 15.9122
C 24.0586 26.7776 19.1981
C 24.7731 28.0788 15.9199
C 25.4923 26.7892 19.2074
C 26.2084 25.6022 15.8729
C 26.2185 25.5398 19.1973
C 26.9212 26.8454 15.8858
C 27.6555 25.5451 19.1499
C 24.0578 29.3179 15.8563
C 24.0522 29.2656 19.1895
C 24.7683 30.5576 15.7887
C 25.49 29.2758 19.1882
C 26.2029 28.0825 15.9093
C 26.208 28.0318 19.2066
C 26.9131 29.3235 15.8364
C 27.6469 28.0365 19.2152
C 24.044 26.7109 23.1203
C 24.0157 26.678 26.3033
C 24.7563 27.9509 23.1141
C 25.4464 26.6759 26.319
C 26.2009 25.4667 23.0912
C 26.1571 25.4361 26.3616
C 26.9148 26.712 23.1015
C 27.5841 25.434 26.4549
C 24.0325 29.1948 23.1279
C 24.0212 29.1541 26.3612
C 24.74 30.4369 23.0932
C 25.4505 29.1526 26.3702
C 26.1885 27.9525 23.1119
C 26.1622 27.9131 26.354
C 26.9 29.1915 23.1329
C 27.5877 27.9118 26.4394
C 30.4891 25.623 15.5641
C 30.5105 25.5552 19.2525
C 31.2035 26.8657 15.5464
C 31.9494 25.5601 19.2839
C 30.5187 25.476 23.0852
C 30.4137 25.4296 26.7851
C 31.2246 26.7315 23.1118
C 31.847 25.4296 26.9654
C 28.3479 26.8519 15.7945
C 28.3644 26.7961 19.2116
C 29.0547 28.0932 15.7292
C 29.7992 26.7983 19.2527
C 28.3573 26.7186 23.0931
C 28.2966 26.671 26.5019
C 29.0649 27.965 23.059
C 29.7168 26.6679 26.6751
C 30.4919 23.1577 15.3774
C 30.5408 23.0703 19.1843
C 31.2066 24.386 15.4197
C 31.9971 23.0701 19.1775
C 30.5065 22.9821 23.0325
C 30.4229 22.9568 26.8619
C 31.2324 24.2338 23.0667
C 31.8499 22.9545 27.0325
C 28.3534 24.3797 15.6722
C 28.3774 24.2945 19.1955
C 29.0633 25.6166 15.6966
C 29.8136 24.3 19.2189
C 28.3604 24.2277 23.0566
C 28.2908 24.195 26.5637
C 29.0777 25.4726 23.0784
C 29.7119 24.1973 26.7239
C 30.469 30.5691 15.4622
C 30.512 30.5238 19.2269
C 31.1744 31.8164 15.3039
C 31.9637 30.5229 19.1656
C 30.4859 30.455 22.9709
C 30.4429 30.3783 26.7613
C 31.2166 31.7162 22.9446
C 31.8817 30.3686 26.8967
C 24.0486 34.2544 15.3482
C 24.0391 34.2411 19.1327
C 24.7671 35.4923 15.1826
C 25.4775 34.2461 19.122
C 26.1857 33.0191 15.4789
C 26.2034 33.0104 19.1704
C 26.9094 34.2687 15.2979
C 27.6521 33.0055 19.242
C 24.0236 34.1574 22.9978
C 24.0389 34.0886 26.7953
C 24.7478 35.421 22.9497
C 25.4621 34.0889 26.8078
C 26.1668 32.9121 23.0192
C 26.1709 32.854 26.6901
C 26.8815 34.1658 23.0662
C 27.5898 32.8572 26.7527
C 28.3318 31.7928 15.5671
C 28.3733 31.7715 19.2089
C 29.0478 33.0443 15.4342
C 29.8004 31.7718 19.2225
C 28.3175 31.6708 22.9845
C 28.3027 31.6218 26.658
C 29.0309 32.9123 22.9717
C 29.7397 31.6179 26.733
C 30.4813 28.0993 15.5929
C 30.5035 28.0389 19.295
C 31.1905 29.3453 15.4751
C 31.9461 28.0451 19.3664
C 30.5037 27.9735 23.0404
C 30.4223 27.9064 26.7748
C 31.2115 29.2172 23.0061
C 31.8592 27.9103 26.9749
C 24.0519 31.7909 15.6642
C 24.0566 31.7599 19.1705
C 24.7648 33.0229 15.5093
C 25.4803 31.7624 19.159
C 26.196 30.5586 15.7752
C 26.2029 30.5274 19.1485
C 26.9058 31.7939 15.6272
C 27.654 30.5293 19.1518
C 24.0177 31.6796 23.0639
C 24.0301 31.6225 26.5398
C 24.7377 32.9189 23.0231
C 25.4558 31.6234 26.5447
C 26.1714 30.4361 23.0887
C 26.1658 30.3876 26.4597
C 26.8867 31.6789 23.0171
C 27.5925 30.3861 26.5219
C 28.3389 29.3259 15.7451
C 28.3648 29.2858 19.1959
C 29.0437 30.5667 15.6078
C 29.7998 29.2825 19.2442
C 28.3453 29.1959 23.0651
C 28.3018 29.149 26.5192
C 29.053 30.441 23
C 29.7234 29.1432 26.6691
H 14.4315 21.888 14.9936
H 14.9133 20.8205 19.1079
H 14.352 21.7251 22.9695
H 14.9089 20.8203 26.9169
H 22.1458 15.988 15.2523
C 22.6827 16.9422 15.2919
H 23.561 15.8811 19.1112
H 22.1065 15.8067 23.064
C 22.645 16.7573 23.0626
H 23.4588 15.8685 27.0431
H 15.6582 19.7183 15.1724
C 16.2056 20.6648 15.2222
H 17.0931 19.5835 19.1875
H 17.801 18.4593 15.3377
C 18.3519 19.4018 15.4071
H 15.6028 19.55 23.0558
C 16.1532 20.4922 23.0118
H 17.0565 19.5783 26.9462
H 17.7571 18.2941 23.1141
C 18.3052 19.2393 23.0712
H 19.9598 17.2188 15.099
C 20.4989 18.1608 15.258
H 21.368 17.128 19.2899
H 19.9151 17.0458 23.0507
C 20.4615 17.9922 23.0551
H 21.3125 17.1145 27.0095
H 24.6373 16.0088 15.2806
H 24.6182 15.8217 23.005
H 13.6117 25.4941 19.0564
C 14.7048 25.5009 19.0825
H 13.6585 25.4504 27.0327
C 14.749 25.452 26.9415
H 13.6483 22.978 19.0072
H 14.4302 24.3734 15.0639
C 14.7413 22.9928 19.0424
H 13.6598 22.9749 26.9634
H 14.3503 24.2305 22.9698
C 14.7523 22.9731 26.9138
H 13.6283 30.5309 19.1691
H 14.4136 31.7525 15.0498
C 14.7214 30.5199 19.1918
H 13.6837 30.4031 27.1607
H 14.3153 31.6375 23.2537
C 14.7748 30.4022 27.0842
H 13.6041 28.0109 19.1303
H 14.4184 29.269 15.1352
C 14.6972 28.0113 19.1558
H 13.6607 27.9258 27.0514
H 14.3451 29.1233 23.0649
C 14.7513 27.922 26.9704
C 15.5192 21.8803 15.1062
C 15.452 21.773 19.1086
C 16.1989 23.1232 15.1843
C 16.8765 21.7528 19.1292
C 17.6179 20.6218 15.3516
C 17.6303 20.5393 19.2004
C 18.3416 21.8769 15.4178
C 19.0381 20.5365 19.3088
C 15.5199 24.3667 15.171
C 15.3967 24.2358 19.0674
C 16.2067 25.5858 15.2176
C 16.868 24.2509 19.1067
C 17.6358 23.1185 15.3583
C 17.5974 23.0127 19.1315
C 18.3505 24.3488 15.4603
C 19.0334 23.0193 19.1852
C 15.445 21.719 22.9846
C 15.4494 21.7706 26.8912
C 16.1258 22.9623 22.9142
C 16.8704 21.738 26.8429
C 17.5658 20.4534 22.9971
C 17.6006 20.5257 26.879
C 18.3021 21.7233 22.9798
C 19.0024 20.5103 26.9111
C 15.4461 24.2155 22.9682
C 15.4318 24.2286 26.8865
C 16.1521 25.4382 23.0209
C 16.8739 24.2194 26.7722
C 17.583 22.9669 22.9599
C 17.5843 22.9876 26.7594
C 18.3069 24.2045 22.9975
C 19.0166 22.9856 26.6709
C 21.9249 20.6353 15.4465
C 21.927 20.5519 19.3121
C 22.6362 21.8794 15.4776
C 23.3798 20.5393 19.3255
C 21.8977 20.4684 23.1218
C 21.8731 20.5156 26.7847
C 22.6155 21.7249 23.1953
C 23.2926 20.5039 26.7111
C 19.776 21.8703 15.4987
C 19.7621 21.7943 19.2627
C 20.4875 23.1122 15.5988
C 21.1964 21.7971 19.2986
C 19.7304 21.7218 23.0398
C 19.7278 21.758 26.7543
C 20.4562 22.966 23.0848
C 21.154 21.745 26.6704
C 21.9276 18.1443 15.3078
C 21.9298 18.0648 19.1586
C 22.6497 19.4 15.3865
C 23.3651 18.0284 19.257
C 21.8997 17.953 23.0828
C 21.8637 18.0569 26.9262
C 22.6268 19.2302 23.0983
C 23.283 18.0278 26.9747
C 19.7667 19.3702 15.3544
C 19.7829 19.3219 19.2151
C 20.4942 20.6294 15.4539
C 21.2169 19.3108 19.2075
C 19.7152 19.209 23.0621
C 19.7348 19.2951 26.8489
C 20.4496 20.4795 23.0824
C 21.1468 19.2689 26.9435
C 21.9185 25.5903 15.7738
C 21.8977 25.5354 19.2355
C 22.6343 26.8317 15.8299
C 23.3455 25.5327 19.1781
C 21.8936 25.4557 23.1341
C 21.8695 25.4447 26.3686
C 22.6061 26.7069 23.1267
C 23.2988 25.4411 26.3263
C 15.5078 29.2792 15.242
C 15.3801 29.2814 19.1947
C 16.1853 30.5252 15.245
C 16.8555 29.271 19.2351
C 17.6443 28.0644 15.3954
C 17.5588 28.025 19.2473
C 18.3489 29.3048 15.4381
C 19.008 28.014 19.3734
C 15.439 29.1469 23.067
C 15.4448 29.153 26.9906
C 16.1025 30.4011 23.1249
C 16.8846 29.1581 26.8623
C 17.5973 27.9355 23.0409
C 17.596 27.9158 26.7344
C 18.2931 29.1843 23.0753
C 19.0205 27.919 26.5755
C 19.7865 26.8212 15.5606
C 19.7253 26.77 19.2621
C 20.509 28.0661 15.5489
C 21.1727 26.7634 19.2633
C 19.7443 26.7025 23.1065
C 19.7291 26.6852 26.4863
C 20.4501 27.9529 23.1099
C 21.1575 26.683 26.3874
C 21.9203 23.1174 15.6264
C 21.9088 23.0504 19.2986
C 22.6322 24.3521 15.7555
C 23.3686 23.0535 19.3288
C 21.8918 22.9599 23.1369
C 21.8674 22.9745 26.5093
C 22.6107 24.208 23.1278
C 23.2956 22.9685 26.4589
C 15.5174 26.8208 15.3329
C 15.3785 26.7582 19.1307
C 16.2005 28.0625 15.2546
C 16.8485 26.7613 19.1689
C 17.6493 25.586 15.3861
C 17.5698 25.502 19.1391
C 18.3509 26.8227 15.4636
C 19.0183 25.5096 19.139
C 15.4691 26.6795 22.9198
C 15.4302 26.6782 26.9192
C 16.1552 27.9244 23.0201
C 16.8797 26.6807 26.7806
C 17.6004 25.4485 22.99
C 17.5902 25.4534 26.6853
C 18.3104 26.6947 23.0304
C 19.014 25.4515 26.5525
C 19.7768 24.344 15.6032
C 19.744 24.2753 19.1802
C 20.493 25.5854 15.6642
C 21.1851 24.2783 19.2507
C 19.7457 24.1971 23.0828
C 19.7268 24.2166 26.5409
C 20.4613 25.4568 23.1394
C 21.1543 24.2106 26.4542
C 24.0825 16.951 15.2913
C 24.1062 16.8286 19.1462
C 24.8131 18.1677 15.3115
C 25.5229 16.8272 19.1123
H 26.0655 15.8837 19.027
H 26.7854 17.2673 15.2399
C 24.0781 19.4104 15.3738
C 24.0887 19.2925 19.2743
C 24.7928 20.6529 15.4381
C 25.5249 19.2986 19.2487
C 26.2296 18.208 15.2961
C 26.258 18.0386 19.1553
C 26.938 19.4201 15.2679
C 27.6738 18.0799 19.0458
C 24.0655 16.7642 23.0034
C 24.0142 16.8088 26.9711
C 24.7964 17.9849 23.0497
C 25.3992 16.7953 26.8575
H 25.9401 15.8442 26.8469
H 26.7767 17.0944 22.8864
C 24.0663 19.2389 23.0714
C 24.0055 19.2632 26.8178
C 24.7739 20.4878 23.0545
C 25.4252 19.2505 26.7611
C 26.2146 18.0331 22.9085
C 26.147 17.9974 26.7959
C 26.9174 19.2596 22.8388
C 27.5635 18.012 26.7174
H 28.2206 17.1389 18.9444
H 28.1041 17.0615 26.7347
C 30.4804 20.6973 15.289
C 30.5752 20.5504 19.0697
C 31.2084 21.9184 15.2154
C 31.985 20.5922 19.0811
C 30.485 20.5068 22.9681
C 30.4342 20.4685 26.9035
C 31.2323 21.7127 23.0454
C 31.8469 20.508 27.0058
C 24.0668 24.3595 15.7934
C 24.08 24.2986 19.2589
C 24.778 25.5968 15.8911
C 25.5135 24.2969 19.2446
C 26.2124 23.1343 15.6679
C 26.2392 23.0463 19.256
C 26.9235 24.3702 15.761
C 27.6632 23.0562 19.2179
C 24.0495 24.2141 23.1163
C 24.0111 24.2018 26.3656
C 24.7646 25.4616 23.1042
C 25.4411 24.1987 26.3802
C 26.1971 22.9809 23.0412
C 26.1501 22.9618 26.4753
C 26.9193 24.2204 23.0633
C 27.5742 22.9618 26.5647
C 28.3489 21.9217 15.4103
C 28.3923 21.8074 19.1795
C 29.0643 23.1524 15.4972
C 29.8286 21.8173 19.1396
C 28.344 21.7557 22.9638
C 28.2869 21.7236 26.6819
C 29.0772 22.9855 23.0095
C 29.7185 21.7225 26.8228
H 30.3678 18.3853 18.944
H 31.0293 19.7531 15.2092
H 30.2644 18.3072 26.8392
H 31.015 19.5483 22.9758
C 24.0723 21.8875 15.5163
C 24.1044 21.7966 19.3426
C 24.784 23.1292 15.6752
C 25.5343 21.7996 19.2942
C 26.2142 20.6681 15.4037
C 26.2374 20.5485 19.2529
C 26.9287 21.9037 15.5038
C 27.6659 20.5562 19.1668
C 24.0524 21.728 23.1329
C 24.0086 21.7319 26.5536
C 24.7707 22.9723 23.0893
C 25.4344 21.7281 26.5446
C 26.1969 20.5086 22.9524
C 26.1445 20.4893 26.6518
C 26.9137 21.744 22.9832
C 27.5753 20.4826 26.6835
C 28.3518 19.4588 15.3399
C 28.4002 19.2881 19.0839
C 29.0753 20.674 15.2571
C 29.8233 19.3291 19.0244
C 28.3312 19.2887 22.9066
C 28.3003 19.2185 26.7508
C 29.0625 20.5054 22.9407
C 29.7141 19.2514 26.8018
H 32.5396 19.6526 19.0363
H 33.1668 21.001 15.1167
H 32.394 19.5614 27.0416
H 33.1944 20.7908 23.1895
H 14.89 32.7032 19.1383
H 14.9431 32.5464 27.1941
C 15.5023 31.7649 15.1516
C 15.4306 31.7527 19.1665
C 16.1869 32.9843 15.2224
C 16.8569 31.7727 19.213
C 17.6257 30.5382 15.3807
C 17.5737 30.519 19.2859
C 18.3288 31.7789 15.4216
C 19.0155 30.5084 19.3253
H 15.6368 33.9265 15.155
H 17.0729 33.9458 19.2106
C 17.6038 33.0355 15.3363
C 17.6051 32.9893 19.1924
C 18.3308 34.2556 15.3851
C 19.0287 32.9904 19.2398
C 15.404 31.6422 23.1801
C 15.4775 31.5947 27.104
C 16.1158 32.8851 23.1143
C 16.8932 31.6233 27.0266
C 17.5638 30.4128 23.0859
C 17.6014 30.3852 26.8635
C 18.2786 31.6661 23.0889
C 19.032 30.3869 26.7138
H 15.5596 33.8254 23.1205
H 17.0913 33.7883 27.113
C 17.5297 32.9327 23.0452
C 17.6228 32.8484 26.9156
C 18.2797 34.1574 22.9361
C 19.0374 32.8579 26.9093
C 21.917 30.5528 15.6743
C 21.8969 30.5095 19.2305
C 22.6273 31.7898 15.6336
C 23.3355 30.5137 19.1862
C 21.8714 30.4394 23.1252
C 21.8821 30.389 26.502
C 22.5951 31.6801 23.081
C 23.3113 30.3893 26.4483
C 19.7671 31.7873 15.5096
C 19.7488 31.7382 19.2766
C 20.4809 33.0282 15.4806
C 21.1827 31.7522 19.2562
C 19.7118 31.6748 23.1144
C 19.7512 31.6112 26.7565
C 20.4385 32.9213 23.1027
C 21.1735 31.6208 26.6565
C 21.9261 28.0711 15.732
C 21.8865 28.0185 19.2465
C 22.6318 29.3169 15.7713
C 23.3256 28.0168 19.2014
C 21.8792 27.9507 23.1325
C 21.8742 27.9187 26.3704
C 22.5943 29.1954 23.1731
C 23.3033 27.9172 26.3254
C 19.7852 29.3164 15.5008
C 19.7218 29.2663 19.3708
C 20.4892 30.5525 15.5741
C 21.1688 29.265 19.2757
C 19.7293 29.1934 23.099
C 19.7358 29.1539 26.5642
C 20.4364 30.4318 23.1122
C 21.1628 29.1553 26.4582
C 21.9016 35.5087 15.287
C 21.8898 35.4579 19.2321
C 22.6423 36.7136 15.2078
C 23.3103 35.5023 19.1024
C 21.8588 35.4326 23.0245
C 21.9007 35.3043 26.93
C 22.5965 36.6376 23.0254
C 23.3159 35.3322 26.8988
H 19.9418 36.4407 15.3214
H 21.3311 36.3986 19.2493
H 19.89 36.346 23.0775
H 21.3538 36.2486 27.016
C 21.9113 33.0248 15.5008
C 21.9036 32.9825 19.2395
C 22.6276 34.261 15.3662
C 23.3299 32.9975 19.1792
C 21.8747 32.923 23.0524
C 21.8991 32.85 26.7525
C 22.5907 34.1618 23.0088
C 23.3197 32.8528 26.6816
H 17.7822 35.1987 15.3187
H 17.7377 35.1008 22.8245
C 19.7487 34.2889 15.3894
C 19.7659 34.2063 19.2327
C 20.4841 35.4924 15.366
C 21.1819 34.2352 19.3049
C 19.71 34.1908 23.0436
C 19.7636 34.0757 26.8732
C 20.4362 35.3983 23.0784
C 21.1878 34.0993 26.9307
C 32.6269 21.951 15.1928
C 32.6878 21.8301 19.1759
C 33.3274 23.1492 15.2643
H 33.7804 21.8384 19.1584
C 32.6539 24.3933 15.3404
C 32.6646 24.3262 19.3432
C 33.3439 25.6313 15.4164
H 33.7594 24.3515 19.3237
H 34.4223 23.1506 15.2413
C 32.6514 21.7362 23.1384
C 32.5306 21.7129 27.0732
C 33.3691 22.977 23.1762
H 33.6216 21.7216 27.1648
C 32.703 24.2265 23.1109
C 32.5458 24.1996 26.9652
C 33.3886 25.4939 23.0575
H 33.6234 24.2061 27.1752
H 34.4595 22.9661 23.2321
C 32.6317 29.3471 15.395
C 32.6451 29.273 19.2818
C 33.3006 30.5997 15.3443
H 33.7398 29.2632 19.2673
H 34.4251 28.1263 15.3966
C 32.6771 29.2262 23.0938
C 32.5552 29.124 26.9611
C 33.3476 30.4694 23.118
H 33.6457 29.116 27.0527
H 34.4496 27.9871 23.2423
C 32.6597 26.8709 15.4488
C 32.6351 26.8058 19.2813
C 33.3324 28.1157 15.4417
H 34.4365 25.6328 15.366
C 32.6874 26.7435 23.1341
C 32.5418 26.6629 26.9591
C 33.3591 27.9804 23.1891
H 34.4807 25.4987 22.9946
H 22.0936 37.6601 15.1793
H 23.4947 37.6621 19.1276
H 22.0546 37.5859 23.048
H 23.5002 37.4881 27.0037
C 24.0266 36.7076 15.1499
C 24.0435 36.7184 19.139
H 24.5794 37.6492 15.0704
C 25.4627 36.7212 19.1179
C 26.1797 35.4771 15.2643
C 26.2045 35.5211 19.1179
H 26.7255 36.4211 15.1661
C 27.6354 35.4839 19.1573
H 26.0038 37.67 19.1184
C 24.0106 36.6343 23.005
C 24.0532 36.5455 26.9634
H 24.5587 37.5798 22.9822
C 25.445 36.5471 26.979
C 26.1704 35.3827 23.0125
C 26.1901 35.3322 26.9294
H 26.7259 36.3257 23.0186
C 27.5942 35.3129 26.9515
H 25.9939 37.4915 27.0332
H 30.3341 35.2024 19.0062
H 30.2838 35.031 26.9169
H 28.1792 36.4303 19.1222
H 28.1384 36.2589 27.0319
C 30.4503 33.0265 15.3701
C 30.5347 33.0361 19.1604
H 30.9913 33.9742 15.2849
C 31.9474 32.9946 19.166
C 30.4577 32.9225 23.0608
C 30.4612 32.8736 26.829
H 30.9829 33.8835 23.1412
C 31.886 32.8255 26.8741
C 28.3173 34.2496 15.3531
C 28.3836 34.2755 19.1943
C 29.7957 34.2575 19.1209
C 28.3018 34.1396 22.9596
C 28.3164 34.1145 26.885
C 29.7357 34.0871 26.8536
C 32.6005 31.7881 15.2936
C 32.6481 31.7671 19.1767
H 33.1345 32.7427 15.245
H 33.74 31.7605 19.1338
H 34.3954 30.6028 15.3343
H 32.5006 33.9352 19.1244
C 32.632 31.6951 23.035
C 32.5701 31.6106 26.9321
H 33.1724 32.6449 23.0424
H 33.6616 31.5987 26.9873
H 34.4364 30.4785 23.2018
H 32.4363 33.7695 26.9064
H 33.6205 26.6603 27.1643
H 19.1879 18.3499 26.93
H 19.224 35.0116 27.0688
H 14.3739 26.6824 22.9361
H 28.8561 35.0832 23.0452
H 33.7309 26.8043 19.2942
H 28.8824 18.3415 22.8931
H 19.244 18.367 19.2955
H 19.2153 35.1526 19.2546
H 28.8613 35.1934 15.2511
H 14.4281 26.8206 15.2193
H 28.9034 18.517 15.2749
Li 31.2203 31.8318 17.3592
Li 16.0207 22.9639 24.9957
Li 23.4319 18.0196 17.1786
Li 24.7977 35.4853 25.0449
Li 31.8839 22.8381 24.9489
Li 16.5315 31.7446 17.1271
Li 27.2076 34.0659 17.34
Li 21.3525 34.4827 17.2342
Li 31.8509 28.1052 24.9259
Li 15.9422 27.9573 25.0607
Li 18.8236 20.545 24.8721
Li 29.2698 20.467 24.9612
Li 19.0273 20.5763 17.2529
Li 26.7557 19.2611 17.3146
Li 21.1105 19.1622 24.9088
Li 26.7683 19.0872 24.8938
Li 28.9896 33.1104 24.9777
Li 21.2797 34.2391 24.889
Li 16.0618 28.1767 17.318
Li 16.0927 25.4356 17.2638
Li 16.735 31.6363 24.9581
Li 32.0571 28.2656 17.3059
Li 29.0503 20.6186 17.2896
Li 32.0923 25.423 17.2674
Li 24.7085 35.6521 17.2612
Li 31.4151 31.5787 25.0057
Li 16.5071 21.9939 17.089
Li 23.5365 17.7827 24.9064
Li 31.511 21.8925 17.2834
Li 19.1468 32.9128 21.2458
Li 16.0218 25.3236 20.9523
Li 18.5664 33.7273 25.01
Li 26.818 34.3113 21.003
Li 21.1227 19.1979 21.2398
Li 32.0028 25.6699 21.2821
Li 32.9293 25.4779 25.1177
Li 29.1885 20.4273 20.928
Li 16.0501 28.0861 21.0039
Li 23.3378 25.4744 21.2686
Li 22.6443 29.3143 21.0703
Li 18.9285 33.1385 17.2299
Li 16.781 21.623 21.154
Li 27.6491 25.4896 21.2368
Li 29.6164 33.5423 21.0958
Li 23.2519 35.5117 21.1614
Li 16.3395 31.4887 21.2231
Li 24.8683 17.8554 21.0079
Li 32.1303 30.4717 21.2141
Li 32.1294 22.8147 21.2438
Li 27.043 29.7098 21.0732
Li 19.4896 25.4987 21.1913
Li 22.9734 21.9075 17.5189
Li 19.6153 28.2109 17.4196
Li 22.8396 21.9037 21.1417
Li 20.6436 18.3328 17.3387
Li 26.5869 23.4123 17.46
