594
592nano.out 0 0 0
C 24.0751 26.8342 16.2335
C 24.0564 26.7903 19.4862
C 24.7861 28.0653 16.2393
C 25.4781 26.7921 19.4826
C 26.2078 25.6006 16.2352
C 26.1875 25.5607 19.4836
C 26.9191 26.8317 16.2395
C 27.6097 25.5614 19.4782
C 24.0755 29.2977 16.238
C 24.0572 29.2507 19.4814
C 24.7873 30.5295 16.2427
C 25.4791 29.2533 19.4761
C 26.2084 28.0637 16.2413
C 26.1895 28.023 19.4768
C 26.919 29.2968 16.2254
C 27.6124 28.0234 19.4774
C 24.0276 26.7238 22.7423
C 24.0118 26.6721 25.9971
C 24.7384 27.9543 22.7422
C 25.4341 26.672 25.999
C 26.1592 25.4932 22.7431
C 26.1449 25.4404 26.0003
C 26.8704 26.7233 22.742
C 27.5678 25.4407 26.0018
C 24.028 29.1849 22.7437
C 24.0118 29.1353 26.0005
C 24.7391 30.4156 22.7447
C 25.4341 29.1352 26.0021
C 26.1597 27.9538 22.742
C 26.145 27.9034 26.0005
C 26.8703 29.1848 22.7438
C 27.5679 27.9028 26.0026
C 30.4782 25.5948 16.2429
C 30.4525 25.5572 19.4829
C 31.1878 26.8255 16.2216
C 31.8899 25.5568 19.492
C 30.4283 25.4918 22.7342
C 30.4131 25.439 25.9854
C 31.1384 26.7212 22.7324
C 31.8515 25.4404 25.9595
C 28.3422 26.8295 16.2294
C 28.3213 26.7924 19.4767
C 29.0515 28.0607 16.1895
C 29.7473 26.7915 19.4833
C 28.2923 26.7227 22.741
C 28.2781 26.6717 26.0004
C 29.003 27.9534 22.7432
C 29.7051 26.6715 25.9948
C 30.4785 23.1345 16.2505
C 30.4461 23.091 19.4902
C 31.187 24.3592 16.2575
C 31.8834 23.0978 19.5017
C 30.4269 23.0343 22.7324
C 30.4108 22.9723 25.9769
C 31.1366 24.2586 22.7304
C 31.8499 22.9804 25.9496
C 28.3421 24.3663 16.2348
C 28.3173 24.3279 19.4818
C 29.0526 25.5959 16.2388
C 29.7421 24.3273 19.4819
C 28.2922 24.2633 22.7419
C 28.2778 24.2075 25.9997
C 29.0027 25.4916 22.7396
C 29.7039 24.208 25.9914
C 30.4763 30.5144 16.0439
C 30.4509 30.4893 19.6083
C 31.1857 31.7642 15.9108
C 31.8955 30.4746 19.6698
C 30.4282 30.4084 22.7738
C 30.4113 30.3707 25.9914
C 31.1394 31.6568 22.7935
C 31.8503 30.3622 25.9676
C 24.0716 34.2269 16.2684
C 24.0566 34.1745 19.4999
C 24.7986 35.4669 16.3006
C 25.4715 34.1799 19.5021
C 26.2096 32.9955 16.2534
C 26.1876 32.9512 19.4982
C 26.9316 34.2395 16.2835
C 27.608 32.9553 19.5337
C 24.0233 34.1092 22.7423
C 24.0159 34.0638 25.9902
C 24.7494 35.3502 22.7358
C 25.4326 34.0639 25.9965
C 26.1598 32.8776 22.7466
C 26.147 32.8331 26.0043
C 26.8795 34.121 22.7439
C 27.5683 32.8317 26.0037
C 28.3424 31.761 16.152
C 28.3157 31.7248 19.5453
C 29.0601 33.0125 16.1339
C 29.7379 31.7216 19.635
C 28.2935 31.6447 22.7616
C 28.2799 31.6013 26.005
C 29.0103 32.8897 22.7687
C 29.7031 31.5977 25.9986
C 30.4774 28.0561 16.1773
C 30.4572 28.0234 19.5048
C 31.1869 29.2883 16.122
C 31.8971 28.0185 19.5223
C 30.4286 27.9513 22.7425
C 30.4132 27.904 25.9885
C 31.1374 29.1834 22.7555
C 31.8517 27.9021 25.9637
C 24.0752 31.7616 16.2432
C 24.0571 31.7119 19.4822
C 24.7888 32.9966 16.2576
C 25.4774 31.7156 19.4823
C 26.2096 30.5283 16.2327
C 26.1892 30.4856 19.4802
C 26.922 31.7641 16.2192
C 27.6109 30.4872 19.5008
C 24.0266 31.6465 22.7461
C 24.0129 31.5991 26.004
C 24.7393 32.8799 22.745
C 25.4333 31.5987 26.0065
C 26.1598 30.4144 22.7458
C 26.1452 30.3669 26.0048
C 26.8726 31.6488 22.75
C 27.5679 30.3659 26.0065
C 28.341 29.2931 16.1817
C 28.3218 29.2564 19.4961
C 29.0496 30.5284 16.1166
C 29.7464 29.2527 19.5216
C 28.293 29.1823 22.7478
C 28.2782 29.136 26.0034
C 29.0049 30.4156 22.7615
C 29.7042 29.1351 25.9978
H 14.4599 21.888 16.3337
H 14.9648 20.9372 19.5202
H 14.4181 21.7808 22.6631
H 14.9171 20.8221 25.8625
H 22.1239 16.0349 16.3056
C 22.6783 16.9786 16.2735
H 23.5261 15.9951 19.515
H 22.0756 15.9288 22.6439
C 22.63 16.8724 22.6705
H 23.4895 15.8713 25.8584
H 15.6942 19.7465 16.3074
C 16.2344 20.6979 16.2754
H 17.1043 19.7073 19.5023
H 17.8378 18.5145 16.2701
C 18.3854 19.4632 16.2457
H 15.651 19.6375 22.6453
C 16.192 20.5889 22.6724
H 17.0574 19.5877 25.8764
H 17.7929 18.406 22.6534
C 18.3411 19.3543 22.6785
H 19.9865 17.2747 16.2698
C 20.5331 18.224 16.2454
H 21.3926 17.2325 19.501
H 19.9399 17.1667 22.653
C 20.4866 18.1159 22.6778
H 21.3517 17.1088 25.8741
H 24.5967 16.0363 16.33
H 24.5494 15.9326 22.6597
H 13.7301 25.546 19.5203
C 14.8261 25.5471 19.5067
H 13.6874 25.4328 25.9192
C 14.7823 25.4334 25.9496
H 13.7248 23.0766 19.5286
H 14.4621 24.3573 16.3269
C 14.8198 23.069 19.5117
H 13.6818 22.9623 25.8838
H 14.4223 24.2471 22.6957
C 14.7757 22.9537 25.9195
H 13.7257 30.4942 19.5341
H 14.4592 31.7831 16.3566
C 14.8208 30.502 19.5185
H 13.6822 30.3838 25.8918
H 14.4193 31.6675 22.699
C 14.7761 30.3926 25.9283
H 13.7304 28.0247 19.5205
H 14.4621 29.315 16.3369
C 14.8264 28.0242 19.5072
H 13.6876 27.9128 25.9211
H 14.423 29.2009 22.7081
C 14.7825 27.9127 25.9516
C 15.5527 21.8795 16.2881
C 15.503 21.8891 19.5072
C 16.2355 23.1455 16.2626
C 16.9406 21.8487 19.4932
C 17.6716 20.6596 16.2455
C 17.6517 20.6553 19.4916
C 18.3828 21.9103 16.2292
C 19.0704 20.6207 19.4842
C 15.556 24.3587 16.283
C 15.5057 24.3317 19.5016
C 16.2346 25.6054 16.2629
C 16.944 24.3235 19.4904
C 17.6746 23.1375 16.2367
C 17.6532 23.0982 19.4866
C 18.3818 24.3728 16.2292
C 19.0764 23.0939 19.4815
C 15.5117 21.7704 22.6823
C 15.4574 21.772 25.9094
C 16.1949 23.0352 22.7089
C 16.8952 21.7297 25.9414
C 17.6283 20.5505 22.6917
C 17.6058 20.5343 25.9221
C 18.3394 21.7999 22.7165
C 19.025 20.4982 25.9473
C 15.5169 24.2475 22.7114
C 15.4612 24.2168 25.9534
C 16.1954 25.4937 22.725
C 16.8997 24.2069 25.9783
C 17.633 23.0267 22.7234
C 17.6078 22.9799 25.9727
C 18.3398 24.2613 22.7352
C 19.0316 22.9743 25.9873
C 21.9395 20.6756 16.221
C 21.9209 20.6348 19.4796
C 22.6531 21.9098 16.2201
C 23.3407 20.6328 19.4804
C 21.8921 20.567 22.7258
C 21.8778 20.5121 25.9775
C 22.6056 21.8007 22.7372
C 23.2987 20.5104 25.986
C 19.806 21.9073 16.2213
C 19.788 21.8656 19.4802
C 20.518 23.1426 16.2203
C 21.2085 21.8629 19.4789
C 19.7613 21.797 22.7263
C 19.743 21.7446 25.9781
C 20.4731 23.0316 22.7377
C 21.1646 21.7415 25.9885
C 21.9268 18.2042 16.2444
C 21.9402 18.1804 19.4903
C 22.6539 19.4451 16.2282
C 23.3291 18.1615 19.4905
C 21.8791 18.0968 22.6904
C 21.8977 18.0566 25.9201
C 22.6055 19.3373 22.7152
C 23.2884 18.0382 25.9384
C 19.8 19.4334 16.234
C 19.7961 19.4176 19.4866
C 20.5179 20.6771 16.2214
C 21.2009 19.3913 19.4837
C 19.7543 19.3246 22.6939
C 19.751 19.2939 25.9244
C 20.4718 20.5674 22.7176
C 21.1572 19.2674 25.9464
C 21.9412 25.6043 16.2265
C 21.923 25.5581 19.4843
C 22.6524 26.8353 16.2283
C 23.3445 25.5592 19.4861
C 21.8958 25.4933 22.7431
C 21.8785 25.4406 26.0001
C 22.6063 26.7238 22.7425
C 23.3007 25.4404 25.9991
C 15.5561 29.3139 16.292
C 15.5063 29.2394 19.5044
C 16.2355 30.5267 16.2767
C 16.9447 29.2483 19.4938
C 17.6732 28.0688 16.2413
C 17.6535 28.016 19.4882
C 18.3824 29.3 16.236
C 19.0794 28.0175 19.4847
C 15.5176 29.2004 22.7215
C 15.4614 29.1291 25.9582
C 16.1958 30.4126 22.726
C 16.9 29.1385 25.983
C 17.6325 27.9555 22.7379
C 17.6085 27.9043 25.9938
C 18.3406 29.1862 22.7403
C 19.0345 27.9051 26.0016
C 19.8084 26.8365 16.2273
C 19.7902 26.787 19.4835
C 20.5186 28.0671 16.2258
C 21.2122 26.7881 19.4845
C 19.7651 26.7238 22.7435
C 19.7451 26.6725 26.0016
C 20.4745 27.9541 22.7438
C 21.1676 26.6724 26.0013
C 21.941 23.1413 16.222
C 21.9218 23.0976 19.48
C 22.6519 24.3723 16.2245
C 23.3422 23.0975 19.4813
C 21.8949 23.0315 22.741
C 21.8781 22.9772 25.9978
C 22.6057 24.2624 22.7429
C 23.2996 22.9768 26.0005
C 15.5545 26.8364 16.2851
C 15.5074 26.7856 19.4998
C 16.2346 28.0668 16.2666
C 16.9433 26.786 19.4905
C 17.673 25.6041 16.2381
C 17.6531 25.5561 19.4869
C 18.3812 26.8365 16.2323
C 19.079 25.5559 19.4832
C 15.5166 26.7239 22.7217
C 15.4631 26.6729 25.9661
C 16.1957 27.9539 22.7285
C 16.8991 26.6727 25.9883
C 17.6322 25.4921 22.7355
C 17.6084 25.441 25.9919
C 18.3395 26.7238 22.7403
C 19.0344 25.4399 26.0003
C 19.808 24.3724 16.2236
C 19.7888 24.3277 19.4814
C 20.5184 25.6054 16.2247
C 21.2116 24.327 19.4815
C 19.7643 24.2609 22.7403
C 19.7441 24.2096 25.9982
C 20.4742 25.4934 22.7431
C 21.1674 24.2081 26.0007
C 24.0428 16.9786 16.2851
C 24.0821 16.9369 19.5024
C 24.7974 18.2028 16.2597
C 25.4455 16.9353 19.5051
H 25.9983 15.9906 19.5202
H 26.7339 17.2721 16.322
C 24.0712 19.4445 16.235
C 24.0553 19.403 19.4844
C 24.7871 20.6737 16.2281
C 25.4707 19.4016 19.4867
C 26.188 18.2194 16.2792
C 26.1961 18.1604 19.496
C 26.9272 19.4288 16.26
C 27.5882 18.1801 19.4991
C 23.9936 16.874 22.6794
C 24.0431 16.8138 25.905
C 24.7474 18.0978 22.7058
C 25.4075 16.8133 25.914
H 25.9612 15.8697 25.8778
H 26.6831 17.1682 22.6913
C 24.0215 19.3388 22.7214
C 24.015 19.2801 25.9701
C 24.7374 20.5679 22.7334
C 25.4317 19.2798 25.9747
C 26.1367 18.1165 22.7075
C 26.159 18.0387 25.9481
C 26.877 19.3267 22.7212
C 27.5522 18.059 25.9434
H 28.1353 17.2314 19.511
H 28.0995 17.1106 25.9124
C 30.4781 20.6889 16.2865
C 30.4468 20.6145 19.4997
C 31.1896 21.8825 16.2719
C 31.8824 20.6511 19.5122
C 30.4268 20.5919 22.7164
C 30.4132 20.4948 25.9523
C 31.1381 21.7846 22.7209
C 31.8502 20.5328 25.9214
C 24.0744 24.3709 16.2253
C 24.0541 24.3287 19.4849
C 24.7856 25.6022 16.2304
C 25.4758 24.3296 19.4859
C 26.2079 23.1378 16.223
C 26.1849 23.0978 19.4846
C 26.9187 24.3673 16.2273
C 27.6064 23.0986 19.4858
C 24.027 24.2628 22.743
C 24.0115 24.2088 26.0001
C 24.738 25.4932 22.7425
C 25.4338 24.2087 26.0013
C 26.1584 23.0328 22.7429
C 26.1446 22.9769 26.0009
C 26.8696 24.262 22.7436
C 27.5674 22.9777 26.0001
C 28.3421 21.9027 16.2358
C 28.316 21.8625 19.4875
C 29.0543 23.131 16.2343
C 29.7378 21.8648 19.4919
C 28.2914 21.8016 22.7353
C 28.2793 21.7422 25.9906
C 29.0038 23.0295 22.738
C 29.7025 21.7454 25.9787
H 30.281 18.4703 19.5107
H 31.0239 19.7406 16.3322
H 30.2465 18.3499 25.9142
H 30.9737 19.6441 22.7021
C 24.0734 21.9082 16.2228
C 24.0538 21.8663 19.4803
C 24.786 23.139 16.2225
C 25.4728 21.8663 19.4818
C 26.2076 20.6734 16.236
C 26.1844 20.6318 19.4835
C 26.921 21.9019 16.2282
C 27.6044 20.6329 19.4865
C 24.025 21.8012 22.7394
C 24.0122 21.745 25.9974
C 24.7378 23.032 22.7425
C 25.4326 21.7452 25.9989
C 26.1575 20.5702 22.733
C 26.1461 20.5106 25.989
C 26.8709 21.7983 22.7384
C 27.5674 20.512 25.9844
C 28.3334 19.4534 16.2813
C 28.3202 19.3892 19.4933
C 29.0585 20.6555 16.2619
C 29.7329 19.4187 19.4995
C 28.2822 19.3537 22.7171
C 28.2851 19.2684 25.9606
C 29.0079 20.5564 22.7244
C 29.6993 19.2984 25.9452
H 32.421 19.6981 19.5244
H 33.1632 20.9686 16.3481
H 32.3892 19.5806 25.8847
H 33.1117 20.8717 22.6906
H 14.9661 32.6333 19.538
H 14.9187 32.525 25.8795
C 15.5522 31.7924 16.3107
C 15.5044 31.6816 19.5206
C 16.2338 32.974 16.305
C 16.9417 31.722 19.5071
C 17.6749 30.5354 16.2494
C 17.654 30.4734 19.4944
C 18.3827 31.7619 16.248
C 19.0771 30.4787 19.4887
H 15.6932 33.9248 16.3432
H 17.1065 33.8629 19.5278
C 17.6711 33.0126 16.2735
C 17.653 32.9151 19.5121
C 18.3846 34.2085 16.2811
C 19.0712 32.9503 19.503
C 15.5129 31.6777 22.7147
C 15.4579 31.5742 25.923
C 16.1932 32.8592 22.717
C 16.8959 31.6157 25.9548
C 17.634 30.4209 22.7367
C 17.6083 30.3654 25.9808
C 18.3406 31.6475 22.7373
C 19.0321 30.3706 25.994
H 15.6526 33.8112 22.7035
H 17.0587 33.7576 25.8972
C 17.6295 32.8972 22.7295
C 17.6067 32.8108 25.9398
C 18.3424 34.0933 22.727
C 19.026 32.8465 25.9638
C 21.9425 30.5305 16.2249
C 21.9242 30.4777 19.487
C 22.6542 31.7617 16.2296
C 23.3451 30.4806 19.4835
C 21.896 30.4162 22.7456
C 21.8787 30.3672 26.0011
C 22.6072 31.647 22.7458
C 23.3001 30.3674 26.003
C 19.8064 31.765 16.2366
C 19.7892 31.7065 19.4921
C 20.5182 32.9952 16.2411
C 21.2103 31.7108 19.4911
C 19.7626 31.6505 22.7417
C 19.7437 31.6002 25.9883
C 20.4733 32.88 22.7404
C 21.1653 31.603 25.9967
C 21.9418 28.0668 16.2267
C 21.9238 28.0184 19.4857
C 22.6531 29.2984 16.2277
C 23.3459 28.0202 19.4856
C 21.8962 27.9545 22.7434
C 21.8787 27.9041 26.0002
C 22.6065 29.1853 22.7442
C 23.3009 27.9039 25.9989
C 19.8086 29.3005 16.2284
C 19.7897 29.2458 19.4851
C 20.519 30.5301 16.2267
C 21.2127 29.2484 19.4855
C 19.7651 29.1867 22.7436
C 19.7444 29.1353 26.0009
C 20.4743 30.4158 22.744
C 21.1678 29.1365 26.0021
C 21.9267 35.4671 16.2759
C 21.9397 35.392 19.5227
C 22.6783 36.6911 16.3103
C 23.3283 35.4136 19.5192
C 21.8805 35.3509 22.7322
C 21.8987 35.2881 25.9468
C 22.6313 36.5756 22.7234
C 23.2893 35.3057 25.966
H 19.9857 36.3959 16.3139
H 21.3917 36.3392 19.5396
H 19.9406 36.2805 22.7169
H 21.3536 36.2366 25.9052
C 21.9398 32.9964 16.2355
C 21.923 32.9387 19.4969
C 22.6541 34.2269 16.2524
C 23.3429 32.9435 19.4917
C 21.8937 32.8807 22.7436
C 21.8786 32.8324 25.9905
C 22.6072 34.1104 22.7406
C 23.2994 32.8336 25.9984
H 17.8366 35.1566 16.3118
H 17.7944 35.0419 22.7165
C 19.7996 34.2387 16.2656
C 19.7973 34.1532 19.5117
C 20.5323 35.4471 16.2821
C 21.2017 34.1807 19.5088
C 19.7557 34.1228 22.7335
C 19.7519 34.0507 25.9453
C 20.4879 35.3315 22.7277
C 21.1581 34.0773 25.9666
C 32.6276 21.9218 16.304
C 32.564 21.832 19.5156
C 33.3117 23.102 16.3028
H 33.6569 21.8403 19.5322
C 32.6267 24.367 16.2806
C 32.5643 24.3093 19.5032
C 33.3057 25.5822 16.2867
H 33.6584 24.3063 19.5216
H 34.4062 23.1068 16.3353
C 32.5753 21.8245 22.7074
C 32.5325 21.7142 25.9164
C 33.2596 23.0037 22.708
H 33.6255 21.7224 25.8725
C 32.5748 24.2667 22.7199
C 32.5296 24.1934 25.9346
C 33.255 25.4814 22.7143
H 33.6237 24.1919 25.8917
H 34.3544 23.0111 22.6933
C 32.624 29.276 16.1752
C 32.5766 29.2615 19.5917
C 33.3071 30.5362 16.1232
H 33.67 29.2634 19.6326
H 34.3979 28.0678 16.3156
C 32.5754 29.1728 22.7452
C 32.5299 29.1491 25.9454
C 33.2608 30.4342 22.7556
H 33.624 29.1504 25.9032
H 34.3511 27.9586 22.7074
C 32.625 26.8228 16.254
C 32.5727 26.786 19.5047
C 33.3042 28.0603 16.2574
H 34.4005 25.5804 16.3164
C 32.5742 26.72 22.7228
C 32.5315 26.6713 25.9411
C 33.2553 27.9575 22.7222
H 34.3507 25.4806 22.704
H 22.1245 37.6346 16.3477
H 23.5185 37.5783 19.5743
H 22.0767 37.5195 22.7097
H 23.4905 37.4723 25.8987
C 24.0434 36.6908 16.3229
C 24.0775 36.6391 19.5453
H 24.5954 37.6342 16.3663
C 25.4409 36.6455 19.5453
C 26.191 35.4483 16.3245
C 26.194 35.423 19.5225
H 26.7357 36.3971 16.3637
C 27.5866 35.4102 19.5443
H 25.9921 37.5905 19.5777
C 23.995 36.5742 22.7262
C 24.0442 36.53 25.9414
H 24.5499 37.5165 22.7158
C 25.4085 36.5302 25.9526
C 26.139 35.3312 22.736
C 26.16 35.305 25.9801
H 26.6848 36.2798 22.7296
C 27.5532 35.285 25.979
H 25.9624 37.4738 25.9221
H 30.2733 35.1313 19.73
H 30.2481 34.9932 25.9561
H 28.1287 36.3623 19.5621
H 28.0997 36.2342 25.9555
C 30.4776 32.9738 15.999
C 30.4406 32.9815 19.7515
H 31.0324 33.9181 15.9655
C 31.8744 32.9295 19.9107
C 30.4295 32.8508 22.7868
C 30.4139 32.8483 25.9831
H 30.9783 33.798 22.781
C 31.8508 32.81 25.956
C 28.3402 34.2131 16.2523
C 28.3216 34.2038 19.5712
C 29.73 34.1811 19.6759
C 28.2853 34.0929 22.7522
C 28.2862 34.0755 25.9906
C 29.7001 34.045 25.9805
C 32.6298 31.717 15.9591
C 32.5647 31.7408 19.8564
H 33.1751 32.6633 15.8834
H 33.6484 31.7361 19.99
H 34.3985 30.5402 16.2178
H 32.4081 33.8645 20.1075
C 32.5763 31.6137 22.7878
C 32.5328 31.6284 25.9442
H 33.1143 32.566 22.783
H 33.6259 31.62 25.9
H 34.3557 30.4272 22.728
H 32.3903 33.762 25.9243
H 33.6256 26.6711 25.9005
H 19.2043 18.3464 25.8798
H 19.2047 34.998 25.9045
H 14.422 26.7239 22.7084
H 28.8322 35.0409 22.7437
H 33.6672 26.7822 19.516
H 28.8294 18.4059 22.7034
H 19.249 18.4696 19.4966
H 19.2505 35.1011 19.527
H 28.8898 35.1579 16.3122
H 14.4605 26.8365 16.3279
H 28.8801 18.5064 16.3233
Li 31.2884 31.895 17.9474
Li 15.3437 22.6187 24.3382
