636
592nano.out 0 0 0
C 22.6783 21.9569 16.6549
C 20.5183 23.1505 16.7594
C 21.9749 20.7132 16.4424
C 24.1117 21.9793 16.6582
C 19.8204 21.9146 16.5413
C 19.7968 24.3821 16.8326
C 29.0768 25.7235 16.5864
C 29.0523 28.1928 16.5772
C 28.3746 24.4818 16.6409
C 20.4441 30.5943 16.8843
C 22.5711 31.8529 16.8097
C 19.748 29.3438 16.9118
C 28.326 29.4238 16.6346
C 24.0018 31.8648 16.7854
C 24.8333 20.7388 16.5361
C 21.9484 23.173 16.7982
C 18.3703 24.3674 16.7223
C 26.9626 21.992 16.564
C 28.3526 26.9519 16.6848
C 18.351 26.8454 16.7896
C 21.8739 30.6088 16.9222
C 20.5453 20.7019 16.3438
C 29.0927 23.2563 16.4833
C 26.2482 23.2187 16.7378
C 19.7725 26.8621 16.9281
C 26.1691 30.6474 16.7852
C 18.3219 29.326 16.778
C 30.4921 25.7376 16.3564
C 26.8652 31.8874 16.61
C 30.4668 28.1963 16.3379
C 19.7152 31.8189 16.7131
C 29.0153 30.6628 16.4468
C 26.9001 29.4151 16.7918
C 24.7373 30.6364 16.8693
C 21.8351 33.072 16.6352
C 24.7003 33.0986 16.5862
C 24.8178 23.2102 16.7865
C 26.9516 24.4634 16.7655
C 20.4985 25.6275 16.9321
C 20.4738 28.1132 16.9727
C 26.2527 20.7544 16.4854
C 17.6584 25.5945 16.6897
C 22.7052 19.4813 16.2744
C 28.3837 22.0291 16.4123
C 18.3896 21.901 16.4623
C 17.6365 28.0822 16.6803
C 24.1305 19.4911 16.3637
C 17.6722 23.1196 16.5757
C 31.1831 26.9721 16.2123
C 28.2864 31.8851 16.4338
C 26.1209 33.1065 16.4995
C 20.4107 33.0555 16.5722
C 26.9247 26.9384 16.8246
C 22.606 29.3766 16.9853
C 22.655 24.4169 16.9065
C 30.5201 23.2735 16.3405
C 31.2151 24.5033 16.2434
C 17.591 30.557 16.6753
C 18.2788 31.7987 16.6242
C 31.1534 29.4338 16.1231
C 26.1979 28.1707 16.8779
C 24.0379 29.3904 16.9586
C 30.4312 30.6607 16.1737
C 26.2221 25.6931 16.8551
C 21.9054 28.1289 17.0103
C 22.532 34.3032 16.4134
C 21.9288 25.6489 16.9694
C 24.0869 24.4365 16.8918
C 23.957 34.3165 16.3846
C 19.8356 19.4588 16.0324
C 24.768 28.1583 16.9559
C 22.6329 26.8968 17.0032
C 24.7925 25.6804 16.9248
C 21.9969 18.2431 15.9609
C 17.6808 20.6671 16.2408
C 26.9761 19.5209 16.258
C 29.1092 20.811 16.1636
C 16.2328 25.5767 16.4641
C 24.8597 18.2539 16.1921
C 16.2173 28.0736 16.4146
C 16.2483 23.1042 16.4669
C 24.0646 26.9119 16.9793
C 32.6059 26.9787 15.9102
C 20.5775 18.2583 15.8612
C 18.4184 19.465 16.0122
C 19.6712 34.2884 16.3291
C 31.245 22.0461 16.2352
C 28.9779 33.1218 16.1469
C 26.8104 34.3434 16.2092
C 32.6278 24.5012 15.9665
C 16.1673 30.5371 16.5443
C 32.5732 29.4271 15.8276
C 17.5402 33.0181 16.4061
C 21.7836 35.5273 16.2018
C 31.1138 31.9015 15.9007
C 24.6553 35.5506 16.1144
C 26.2774 18.2985 16.1958
C 15.5653 24.3418 16.3918
C 33.2882 25.7413 15.7486
C 28.4004 19.5566 16.2011
C 33.2755 28.2101 15.8009
C 30.5152 20.8403 16.1649
C 15.5078 26.8164 16.4455
C 22.7509 17.0339 15.8462
C 18.2516 34.2392 16.228
C 20.38 35.502 16.2433
C 15.5137 29.2904 16.4083
C 16.2606 20.673 16.3121
C 24.1489 17.0412 15.9693
C 15.564 21.866 16.4089
C 30.3662 33.1127 15.9351
C 28.25 34.3625 16.1988
C 26.0773 35.5331 16.0675
H 20.0381 17.3196 15.654
H 17.8715 18.5171 15.8398
C 33.3399 23.2641 16.011
C 32.6637 22.0695 16.1675
C 33.2194 30.6778 15.5664
C 15.4517 31.7643 16.5347
C 16.115 32.971 16.4717
C 32.5026 31.8758 15.5868
C 22.5098 36.7378 15.9557
C 23.9046 36.7416 15.8966
H 34.3617 28.2161 15.6096
H 34.3684 25.7412 15.5152
H 26.832 17.3734 15.9306
H 22.2113 16.0844 15.701
H 15.7228 19.7122 16.2699
H 14.4805 24.3216 16.1539
H 19.8237 36.4466 16.1253
H 17.6905 35.1773 16.0914
H 31.0842 19.8885 16.1243
H 14.4134 29.2791 16.2809
H 24.7111 16.0939 15.9109
H 28.9562 18.6457 15.8855
H 14.4635 21.8672 16.4183
H 14.4879 26.8058 16.0098
H 30.8723 34.0488 15.6297
H 26.6046 36.4622 15.7763
H 34.437 23.273 15.8938
H 33.2137 21.1158 16.2
H 28.7261 35.232 15.702
H 34.2945 30.6743 15.3307
H 15.5517 33.9184 16.4485
H 14.3503 31.7328 16.5454
H 21.9417 37.6678 15.8003
H 33.0136 32.8275 15.374
H 24.4468 37.6803 15.7028
C 23.4034 20.6622 19.8334
C 19.0869 23.1392 19.8169
C 21.247 21.9087 19.852
C 21.9727 20.674 19.8277
C 26.2694 20.6727 19.6821
C 19.8214 21.9157 19.7724
C 25.5447 21.9123 19.7908
C 28.4178 21.9298 19.6761
C 24.1172 21.905 19.8609
C 27.6865 23.1534 19.7409
C 19.0715 25.6041 19.9715
C 19.7967 24.3748 19.9371
C 24.1207 19.4221 19.7803
C 19.0499 28.0799 20.068
C 17.6361 25.5956 19.9048
C 28.3939 24.401 19.7597
C 27.7159 20.6786 19.6532
C 17.6203 28.0711 20.0377
C 29.8212 24.4102 19.6188
C 17.6546 23.1334 19.7273
C 26.2501 23.1563 19.8256
C 19.7629 29.3175 20.0802
C 25.5531 19.4265 19.7221
C 21.9593 23.1445 19.9328
C 19.7837 26.8431 20.0532
C 19.0431 30.5481 20.0332
C 29.8553 21.922 19.6197
C 29.8031 26.9028 19.6547
C 28.3782 26.8882 19.8176
C 28.3658 29.3719 19.833
C 16.8999 26.8293 19.998
C 24.0606 31.8224 19.9658
C 21.9165 30.5635 20.0382
C 30.5498 23.1728 19.522
C 16.9254 24.3537 19.8004
C 27.6418 30.5996 19.8652
C 23.393 23.1446 19.9347
C 25.4871 31.8378 19.9356
C 21.2321 24.3783 19.9817
C 21.191 31.7957 19.9657
C 26.2122 30.596 19.9423
C 27.6756 25.6414 19.8568
C 30.5157 25.6685 19.5453
C 21.2024 29.3253 20.0846
C 29.7968 29.3814 19.7036
C 27.6588 28.1251 19.8871
C 23.3487 30.5765 20.0245
C 21.2634 19.4362 19.7529
C 16.8931 29.3091 19.9989
C 23.3355 33.0538 19.8963
C 19.0967 20.6771 19.6523
C 17.6097 30.5443 19.955
C 19.7662 31.7813 19.988
C 30.501 28.1446 19.5824
C 21.8995 33.0315 19.8502
C 25.5353 24.3889 19.9267
C 21.2113 26.8513 20.073
C 25.5075 29.3544 19.9975
C 23.4014 18.1519 19.7768
C 28.4467 19.4307 19.7263
C 28.3516 31.8533 19.78
C 26.2438 25.6372 19.9419
C 26.1902 33.0845 19.8831
C 21.9269 28.0946 20.0863
C 24.0715 29.3435 20.0435
C 26.2298 28.1183 19.9724
C 24.1009 24.386 19.9718
C 21.9416 25.6172 20.04
C 16.9242 21.8995 19.5779
C 19.8284 19.4418 19.6948
C 26.2822 18.1499 19.7218
C 21.9679 18.1877 19.6896
C 30.5072 30.6195 19.6759
C 30.6107 20.662 19.6052
C 17.6719 20.69 19.6417
C 24.0409 34.2988 19.8657
C 23.3604 28.1014 20.065
C 25.5199 26.8716 19.995
C 15.4466 26.8109 20.0753
C 23.3764 25.6226 20.0272
C 31.9562 25.6796 19.4222
C 27.6201 33.0962 19.813
C 24.0866 26.8653 20.0379
C 31.9933 23.1829 19.3842
C 15.4649 24.3159 19.8729
C 29.7865 31.8606 19.7388
C 29.8948 19.4151 19.7542
C 15.4348 29.3171 19.9606
C 25.4725 34.3177 19.894
C 31.9203 28.1629 19.3507
C 27.7181 18.1936 19.8586
C 19.0519 33.0165 19.9142
C 16.8772 31.7752 19.8044
C 21.1852 34.273 19.7003
C 24.1292 16.9348 19.6438
C 14.7251 28.0489 20.1123
C 32.6691 24.4431 19.4197
C 14.7657 25.5582 20.0988
C 32.6268 26.9336 19.3327
C 25.5597 16.9456 19.6191
C 15.5104 21.8922 19.5253
C 17.607 33.0207 19.9258
C 32.0084 20.7205 19.3856
C 19.7641 34.2405 19.7621
C 31.9594 30.6354 19.5661
H 19.2955 18.4653 19.6328
H 21.4049 17.2305 19.7144
C 32.6872 21.9525 19.2812
C 23.3022 35.5565 19.8488
H 17.0784 19.7541 19.5558
C 32.6275 29.3939 19.3525
C 14.7882 23.0823 19.7405
C 21.8821 35.5012 19.7204
H 30.4268 18.4727 19.5044
C 14.7603 30.5459 19.8357
C 15.4712 31.751 19.7527
H 28.2811 17.2389 19.8809
C 28.3398 34.3613 19.9129
H 23.5802 15.9776 19.5828
H 13.6226 28.0356 20.0576
C 30.5249 33.129 19.7829
C 26.188 35.5941 19.9476
H 33.7775 24.4408 19.491
H 14.9821 20.9372 19.3758
H 13.6782 25.5292 20.2892
H 33.7357 26.9622 19.2072
H 26.1107 15.9962 19.534
H 32.5644 19.7767 19.2942
H 17.0657 33.9546 19.6371
H 19.2183 35.1907 19.5484
H 33.779 21.9718 19.149
H 33.7096 29.3939 19.1106
H 13.6856 23.0612 19.7969
H 13.66 30.5528 19.7834
C 32.6494 31.8841 19.5236
H 21.3072 36.4419 19.6903
C 24.0263 36.7907 19.8293
H 14.9313 32.7021 19.6237
C 27.6179 35.5732 20.0109
C 29.7679 34.3418 19.9692
C 31.933 33.1173 19.6634
C 25.4484 36.8005 19.9108
H 33.7515 31.8845 19.491
H 23.4649 37.7378 19.863
H 28.1659 36.5152 20.1905
H 30.3109 35.2855 20.1523
H 32.4856 34.0692 19.6985
H 25.9876 37.7592 19.9682
H 15.1128 20.0991 23.374
H 21.3555 15.9389 23.6338
H 17.1945 18.6764 23.2167
H 19.2833 17.3004 23.5508
H 23.8542 15.7877 23.5784
H 14.0046 22.3702 23.3806
C 21.9669 16.8531 23.5607
C 15.7336 21.0073 23.3345
H 32.7556 20.0894 22.9807
C 17.8069 19.5949 23.2978
C 19.8897 18.2207 23.4906
C 23.3512 16.7667 23.5275
H 26.0693 16.8818 23.575
H 34.1643 22.201 22.919
C 15.1031 22.2947 23.37
H 34.6808 29.68 23.1581
H 14.2035 24.8917 23.3497
H 14.7058 32.2742 23.6923
H 28.2669 17.9587 23.4224
H 30.5068 19.0307 23.2958
H 16.1002 34.3813 23.6708
H 14.4093 27.3453 23.7117
H 34.5284 27.1702 22.9957
H 22.8528 37.6623 23.4925
H 33.5682 31.9263 23.376
H 14.5758 29.7576 23.8543
H 34.333 24.7015 22.9048
C 17.141 20.876 23.3097
C 21.3137 18.112 23.5551
H 25.3849 37.4828 23.5486
C 19.2447 19.4737 23.3845
H 20.59 36.5759 23.3906
C 32.2752 21.0792 23.0241
C 33.0679 22.2736 22.9805
H 18.3527 35.5095 23.5247
C 25.5753 17.8615 23.4594
C 33.5792 29.745 23.1855
C 15.2983 24.7927 23.4839
H 31.484 33.3115 23.5482
C 15.8072 32.202 23.6651
C 24.1562 17.9365 23.4878
H 27.4364 36.0575 23.4529
H 29.4406 34.6638 23.6386
C 15.8837 23.4871 23.357
C 16.596 33.3963 23.6137
C 27.7869 18.9467 23.2697
C 32.9553 31.0104 23.3057
C 30.0219 20.0119 23.1053
C 23.3341 36.6719 23.4966
C 15.5184 27.2569 23.6759
C 33.425 27.252 23.0121
C 15.6759 29.7089 23.7064
C 33.2349 24.7734 22.9603
C 24.7624 36.5754 23.5578
C 26.3613 19.0184 23.3458
C 30.8524 21.1671 23.0393
C 21.0755 35.5868 23.3881
C 28.5929 20.112 23.0562
C 16.107 25.9726 23.5492
C 32.4722 23.5557 22.9939
C 18.8336 34.5127 23.4638
C 22.1054 19.3174 23.3945
C 32.8125 28.5626 23.1284
C 17.9664 22.0853 23.2704
C 16.4246 30.9164 23.5627
C 24.0294 26.6603 23.069
C 16.3076 28.4338 23.7273
C 20.0435 20.6939 23.2937
C 32.6375 26.0601 22.9934
C 24.8311 27.8485 23.0815
C 30.8811 32.3859 23.47
C 22.6007 26.7604 23.0996
C 24.6571 25.3689 23.0452
C 23.5236 19.2272 23.3588
C 18.0021 33.3245 23.4875
C 26.806 35.1511 23.4547
C 22.5181 35.5264 23.4339
C 17.3391 23.3845 23.3157
C 28.8251 33.75 23.5573
C 31.5392 31.114 23.3564
C 24.202 29.1366 23.1188
C 26.2622 27.7479 23.0732
C 21.8001 25.5662 23.1013
C 23.8559 24.1807 23.0512
C 20.2628 34.4251 23.3918
C 21.9742 28.0496 23.1475
C 26.0877 25.2697 23.035
C 25.3979 35.2898 23.4939
C 21.4705 20.6027 23.2667
C 19.397 21.9839 23.2274
C 22.424 24.2754 23.0735
C 22.7712 29.2419 23.1531
C 26.8924 26.4596 23.0472
C 25.731 20.3224 23.2254
C 29.4626 32.4855 23.5068
C 17.5434 25.8691 23.4363
C 27.9595 21.4151 23.0279
C 30.2028 22.469 23.0212
C 27.42 33.8782 23.3675
C 31.0044 23.6681 23.0404
C 24.3085 20.4162 23.2194
C 24.4821 22.8924 23.0601
C 20.3737 25.6635 23.1675
C 18.1474 24.5717 23.3052
C 17.7202 28.3393 23.5102
C 26.7124 23.9809 23.028
C 20.5476 28.149 23.2174
C 27.0625 28.9343 23.1132
C 21.6245 23.0863 23.1047
C 26.533 21.5061 23.0969
C 25.0046 30.3226 23.1523
C 17.8698 30.8177 23.4633
C 31.3539 28.6438 23.1386
C 22.2595 21.7927 23.1383
C 20.1993 23.181 23.155
C 25.9046 22.7971 23.049
C 23.6792 21.6995 23.12
C 31.1826 26.1675 23.0411
C 19.7556 26.9587 23.2445
C 18.658 32.0155 23.4175
C 19.5749 24.4716 23.1942
C 18.3368 27.0563 23.3934
C 28.7717 22.5874 23.013
C 28.319 26.3556 23.0493
C 26.4329 30.2165 23.1612
C 23.1436 34.1908 23.4102
C 22.1457 30.5296 23.2154
C 30.722 29.9189 23.2391
C 18.4982 29.5353 23.4102
C 28.1452 23.8788 23.0315
C 30.3772 24.96 23.0554
C 20.8859 33.1087 23.3513
C 19.9218 29.4415 23.2847
C 30.5542 27.4592 23.0761
C 28.9376 25.0675 23.0469
C 24.5795 34.0862 23.4008
C 28.4965 28.8326 23.1225
C 29.1246 27.5529 23.074
C 20.7099 30.6317 23.2695
C 24.37 31.6064 23.2115
C 20.0807 31.919 23.3355
C 28.6606 31.2985 23.324
C 22.9504 31.7097 23.2512
C 26.607 32.6814 23.2929
C 22.3347 33.0094 23.3413
C 27.2356 31.4021 23.2558
C 29.2974 30.0183 23.2221
C 25.1833 32.7945 23.2878
H 23.2011 15.7977 26.6077
H 14.8262 20.9128 27.312
H 25.6968 15.7206 26.5744
H 32.2043 19.291 27.0695
H 33.4891 21.432 27.2124
H 13.6238 23.1036 27.4498
H 15.0597 32.6735 27.4789
H 13.7398 30.5221 27.4607
H 19.0871 18.3826 27.1057
H 21.121 17.0929 26.6926
H 16.9656 19.6529 27.2958
H 33.6372 26.3648 27.066
H 19.4021 34.9807 27.5304
H 33.7431 31.2398 27.4925
H 23.7153 37.3351 27.8207
H 33.5718 23.9082 27.0659
H 17.2468 33.8208 27.5065
H 27.8539 16.9037 26.6709
H 30.0229 18.0893 26.9953
H 33.6789 28.7909 27.2704
H 32.5426 33.4353 27.6651
H 21.5418 36.1716 27.5592
H 26.2201 37.3018 27.7508
H 13.6999 28.0526 27.373
H 13.6934 25.5891 27.6251
C 23.7935 16.7261 26.5445
C 25.1654 16.6864 26.5272
C 15.3879 21.8566 27.2323
C 31.6875 20.2563 26.9547
C 14.7145 23.0786 27.2979
C 32.4021 21.4533 27.0431
C 14.8343 30.5091 27.3304
C 15.5694 31.7047 27.3469
H 30.4466 34.734 27.5961
H 28.3525 36.0364 27.5522
C 21.6966 18.0301 26.5947
C 19.6126 19.314 26.8058
C 17.4991 20.5692 26.9722
C 32.656 31.298 27.3274
C 24.2499 36.4016 27.5874
C 31.9886 32.5183 27.4189
C 27.3353 17.875 26.6046
C 25.6483 36.3856 27.5388
C 29.5068 19.0525 26.8536
C 32.4811 23.9409 26.9024
C 32.5685 26.4011 26.7677
C 17.7455 32.8885 27.175
C 19.9056 34.0654 27.1627
C 14.7586 25.5679 27.3417
C 14.7876 28.0333 27.1872
C 32.6147 28.8472 26.9717
C 22.0694 35.2308 27.331
C 23.0923 17.9726 26.5072
C 25.9377 17.8946 26.4974
C 16.7946 21.7978 27.0151
C 30.2632 20.2492 26.8168
C 15.4153 24.3171 27.1906
C 31.7599 22.7165 26.8889
C 15.4889 29.2531 27.1234
C 21.0132 19.2526 26.5971
C 16.973 31.6988 27.1108
C 18.9095 20.533 26.82
C 28.0875 19.0634 26.6889
C 29.8836 33.8204 27.3509
C 27.7856 35.1193 27.332
C 15.4578 26.7937 27.1717
C 24.0039 26.6232 26.118
C 31.9531 30.1013 27.0242
C 31.8324 25.1809 26.8104
C 23.4895 35.2269 27.3235
C 19.1513 32.8634 27.0782
C 31.8928 27.6535 26.8104
C 21.3279 34.0501 27.1738
C 30.5729 32.6037 27.2293
C 26.3684 35.1765 27.3002
C 23.3164 27.8778 26.1704
C 25.44 26.5918 26.1175
C 23.2573 25.4004 26.1226
C 28.4876 33.8878 27.2287
C 24.0651 29.1001 26.2227
C 26.187 27.8148 26.1653
C 23.8397 19.1925 26.3947
C 21.8825 27.9058 26.2249
C 26.1252 25.3377 26.1301
C 25.2567 19.1555 26.4011
C 17.5179 23.0334 26.8093
C 21.8265 25.4301 26.1797
C 23.9482 24.144 26.1159
C 16.8344 24.2796 26.8926
C 29.5919 21.5255 26.6164
C 30.3323 22.7464 26.6543
C 16.9164 29.2315 26.8744
C 17.6504 30.4482 26.848
C 25.5005 29.0685 26.2241
C 21.1378 26.683 26.2352
C 25.3794 24.1132 26.1239
C 27.4164 20.3391 26.4811
C 21.7422 20.4781 26.4101
C 19.6302 21.7646 26.5477
C 30.5283 30.1581 26.798
C 16.8819 26.7517 26.8518
C 24.1874 33.9959 27.0145
C 30.3953 25.2254 26.5713
C 29.8423 31.399 26.8992
C 19.8322 31.6254 26.7591
C 25.6136 33.9679 27.0161
C 30.4638 27.7044 26.558
C 22.0146 32.8103 26.8456
C 21.1936 29.1577 26.3372
C 23.3796 30.349 26.3517
C 27.6204 27.7812 26.2317
C 27.5523 25.3043 26.217
C 21.085 24.2026 26.2448
C 26.0014 20.3744 26.3407
C 23.2079 22.9208 26.1674
C 23.1565 20.4456 26.3207
C 18.9376 23.0058 26.5496
C 28.1653 21.5643 26.4421
C 17.5626 25.5102 26.7151
C 17.5986 27.979 26.6994
C 21.044 21.7294 26.3776
C 21.9434 30.3741 26.4114
C 29.6566 24.007 26.493
C 28.3038 26.5248 26.261
C 21.777 22.9515 26.2375
C 19.0806 30.4249 26.6528
C 27.7367 32.6774 26.9089
C 19.7067 26.7088 26.3672
C 29.7292 26.484 26.4285
C 26.0637 22.8577 26.1872
C 21.2582 31.6107 26.6434
C 26.2487 30.2843 26.3653
C 29.7897 28.9507 26.5372
C 23.4414 32.7933 26.7597
C 23.8977 21.6691 26.2109
C 19.6612 24.2294 26.3886
C 19.7612 29.1809 26.4576
C 28.2339 24.0452 26.307
C 25.323 21.6353 26.221
C 18.9716 25.4848 26.4609
C 27.4903 22.8215 26.2862
C 19.019 27.9583 26.48
C 24.1295 31.5619 26.5056
C 28.419 31.4468 26.7197
C 26.3072 32.7263 26.7877
C 28.3649 28.9984 26.3712
C 25.5616 31.5298 26.5175
C 27.6801 30.2467 26.4513
Li 31.6331 21.897 21.1841
Li 16.8371 32.0923 21.8126
Li 16.192 22.2461 21.5485
Li 24.5891 35.751 21.6149
Li 31.6335 31.8404 21.4113
Li 28.8083 33.0145 21.5729
Li 21.7893 34.3486 21.6669
Li 20.911 18.7376 21.6252
Li 15.3943 28.6525 21.9261
Li 16.3503 25.3592 21.6251
Li 26.995 19.9079 21.4841
Li 33.1134 28.1813 21.1001
Li 33.1489 27.7884 25.108
Li 31.6388 24.8787 21.3005
Li 18.6065 20.5399 21.6003
Li 24.7762 17.8544 21.4601
Li 29.2835 18.7373 21.5883
Li 18.4422 34.3314 21.457
Li 29.8201 34.077 17.84
Li 31.8717 24.9125 24.7809
Li 27.2428 35.4972 17.916
Li 27.3853 34.2394 25.3892
Li 18.4366 34.0668 25.5027
Li 21.6515 34.3253 25.158
Li 31.6153 31.6457 25.4107
Li 24.7012 35.7891 25.5498
Li 14.9448 25.9516 25.3001
Li 31.61 21.5767 25.0303
Li 18.0782 19.2677 25.3477
Li 14.7531 25.4095 17.9996
Li 23.2731 35.9681 17.8405
Li 21.0355 19.0127 17.7947
Li 32.2987 30.8842 17.532
Li 15.8157 22.8582 25.3599
Li 27.6394 18.1815 17.7812
Li 15.345 28.137 18.1911
Li 33.2621 25.571 17.7691
Li 29.005 19.8083 24.9783
Li 15.6243 30.9069 25.4364
Li 18.4958 33.7188 18.1297
Li 23.2496 17.7719 17.7661
Li 18.3747 19.5907 18.0137
Li 29.6558 19.9656 17.8682
Li 28.8355 28.3064 21.4282
