606
592nano.out 0 0 0
C 24.0739 26.8281 16.2446
C 24.036 26.7679 19.4864
C 24.7864 28.0628 16.2621
C 25.4584 26.7686 19.4891
C 26.2123 25.597 16.2407
C 26.1702 25.5378 19.4869
C 26.9226 26.8314 16.2564
C 27.5929 25.5397 19.4876
C 24.076 29.2962 16.2589
C 24.0379 29.2327 19.4893
C 24.7911 30.5307 16.2497
C 25.4589 29.2329 19.498
C 26.2111 28.0639 16.2672
C 26.1692 28.001 19.4962
C 26.9252 29.2993 16.2746
C 27.5914 28.0018 19.499
C 24.0207 26.7271 22.7434
C 24.0003 26.679 25.9631
C 24.7344 27.9576 22.7334
C 25.4253 26.6778 25.9606
C 26.1554 25.4954 22.7355
C 26.1383 25.4445 25.9633
C 26.868 26.7256 22.7282
C 27.5633 25.4424 25.9723
C 24.0262 29.1903 22.7319
C 24.0024 29.1447 25.9814
C 24.7412 30.4209 22.735
C 25.4258 29.1419 25.9694
C 26.1578 27.9569 22.7291
C 26.1374 27.909 25.9619
C 26.8715 29.1876 22.7319
C 27.5632 27.906 25.9618
C 30.4927 25.5987 16.2363
C 30.4376 25.5417 19.4877
C 31.2029 26.829 16.245
C 31.8755 25.5455 19.4863
C 30.4285 25.4941 22.7311
C 30.4135 25.4361 25.9838
C 31.1388 26.7228 22.7306
C 31.8531 25.4362 25.983
C 28.3493 26.8313 16.2576
C 28.3021 26.7712 19.4934
C 29.0604 28.064 16.2734
C 29.7282 26.7728 19.4929
C 28.2917 26.7251 22.7267
C 28.2755 26.6742 25.9683
C 29.0041 27.9549 22.7283
C 29.7033 26.6707 25.9732
C 30.5017 23.1388 16.2431
C 30.4406 23.0763 19.4848
C 31.2069 24.3655 16.2236
C 31.8785 23.0884 19.4799
C 30.4284 23.0368 22.7371
C 30.414 22.9718 25.9993
C 31.1367 24.2603 22.735
C 31.8522 22.9809 25.9979
C 28.3545 24.3672 16.2452
C 28.3055 24.3074 19.4858
C 29.0644 25.6006 16.2452
C 29.7306 24.3103 19.4855
C 28.2909 24.265 22.7334
C 28.2763 24.2098 25.9821
C 29.0022 25.4938 22.7294
C 29.7042 24.2085 25.9908
C 30.4882 30.5299 16.3301
C 30.4335 30.4714 19.5209
C 31.1985 31.7933 16.3423
C 31.8715 30.4627 19.5267
C 30.4338 30.4112 22.7344
C 30.4128 30.3703 25.9228
C 31.1467 31.66 22.7367
C 31.8639 30.3523 25.9216
C 24.0774 34.2293 16.2602
C 24.0469 34.1628 19.4799
C 24.8153 35.475 16.2947
C 25.4611 34.1629 19.5012
C 26.2185 33.0028 16.2382
C 26.1743 32.9313 19.5064
C 26.9453 34.2528 16.2489
C 27.594 32.9306 19.52
C 24.0374 34.1192 22.7322
C 24.0199 34.0803 26.0637
C 24.7663 35.3571 22.7578
C 25.4347 34.0793 26.0333
C 26.1692 32.8828 22.7507
C 26.1476 32.8458 26.0054
C 26.8925 34.1254 22.7619
C 27.5668 32.8451 25.9937
C 28.3549 31.7699 16.2809
C 28.3041 31.7005 19.5194
C 29.0723 33.0252 16.2847
C 29.7268 31.6976 19.526
C 28.3007 31.6477 22.7437
C 28.2724 31.6109 25.9644
C 29.0201 32.8933 22.7488
C 29.7019 31.6059 25.938
C 30.4874 28.056 16.2748
C 30.4356 28.0056 19.5011
C 31.2003 29.2952 16.3135
C 31.8737 28.0044 19.5041
C 30.4303 27.953 22.73
C 30.4144 27.901 25.9605
C 31.1408 29.1855 22.7322
C 31.8588 27.8933 25.9615
C 24.0797 31.7628 16.2262
C 24.0409 31.6971 19.4823
C 24.7999 32.9949 16.2274
C 25.4604 31.697 19.4985
C 26.2157 30.5337 16.2646
C 26.1704 30.465 19.5047
C 26.9307 31.7703 16.2568
C 27.592 30.4651 19.511
C 24.0332 31.6544 22.7299
C 24.0092 31.6107 26.0223
C 24.7489 32.8869 22.74
C 25.4316 31.6094 25.9943
C 26.163 30.4188 22.7377
C 26.1398 30.3756 25.9711
C 26.8786 31.6521 22.7448
C 27.5641 30.3736 25.9594
C 28.3484 29.2986 16.2848
C 28.3014 29.2352 19.5075
C 29.0573 30.5378 16.2965
C 29.7267 29.2357 19.5093
C 28.295 29.1849 22.7313
C 28.2753 29.1383 25.953
C 29.0095 30.418 22.7365
C 29.7017 29.1297 25.9481
H 14.4299 21.8891 15.9734
H 14.9484 20.9213 19.5692
H 14.4064 21.7831 22.8039
H 14.9211 20.8167 26.1558
H 22.1464 16.0173 15.8668
C 22.6991 16.9625 15.8572
H 23.5496 15.9578 19.6434
H 22.0849 15.9213 22.7934
C 22.6359 16.8674 22.7881
H 23.4798 15.8658 25.9137
H 15.6637 19.732 15.9381
C 16.2167 20.6749 15.9139
H 17.0807 19.6827 19.6519
H 17.8369 18.4565 15.8195
C 18.3806 19.4049 15.8027
H 15.6295 19.6397 22.7048
C 16.178 20.5869 22.6952
H 17.0557 19.5768 26.3668
H 17.7856 18.3932 22.4278
C 18.3326 19.3343 22.5381
H 20.0098 17.2339 15.741
C 20.5439 18.1896 15.7281
H 21.396 17.1886 19.7179
H 19.9477 17.145 22.626
C 20.4907 18.0956 22.6641
H 21.3251 17.1037 26.105
H 24.6074 16.0189 16.1004
H 24.5598 15.9328 22.7963
H 13.6938 25.5478 19.6242
C 14.788 25.5488 19.6132
H 13.6589 25.428 26.5099
C 14.7525 25.4369 26.4746
H 13.7017 23.0584 19.5856
H 14.4297 24.3917 15.7878
C 14.7961 23.0561 19.5691
H 13.6734 22.9486 26.3208
H 14.401 24.2527 22.5733
C 14.7674 22.9468 26.3387
H 13.7154 30.5046 19.5014
H 14.4594 31.7836 16.1936
C 14.8101 30.5086 19.4769
H 13.6604 30.4035 25.9844
H 14.4218 31.6914 22.7163
C 14.7522 30.3993 26.0498
H 13.7059 28.0438 19.5919
H 14.4631 29.3294 16.0473
C 14.8008 28.036 19.5631
H 13.6448 27.9169 26.3212
H 14.4126 29.2258 22.7231
C 14.739 27.9157 26.3066
C 15.5223 21.8912 15.9356
C 15.4876 21.8729 19.5549
C 16.1987 23.1497 15.8973
C 16.9154 21.8339 19.5594
C 17.6418 20.6207 15.853
C 17.633 20.6264 19.6011
C 18.3606 21.8921 15.8909
C 19.0453 20.5891 19.6768
C 15.524 24.3873 15.8116
C 15.4736 24.3153 19.5974
C 16.2174 25.6262 15.7605
C 16.9149 24.305 19.5667
C 17.6516 23.13 15.9197
C 17.625 23.0749 19.5498
C 18.3709 24.3737 15.9525
C 19.0535 23.071 19.5433
C 15.4994 21.777 22.7449
C 15.459 21.7649 26.2538
C 16.1793 23.0336 22.7031
C 16.8851 21.7307 26.2994
C 17.6065 20.5441 22.6317
C 17.605 20.5253 26.3637
C 18.3189 21.7933 22.714
C 19.0184 20.4994 26.4435
C 15.4947 24.2568 22.6236
C 15.4437 24.2035 26.427
C 16.1739 25.5041 22.5723
C 16.881 24.1998 26.3412
C 17.6113 23.0248 22.7227
C 17.5927 22.9743 26.2931
C 18.323 24.2639 22.7238
C 19.0205 22.9751 26.2384
C 21.9462 20.659 15.844
C 21.9129 20.5991 19.5979
C 22.6546 21.8951 15.9891
C 23.3366 20.6014 19.5765
C 21.8917 20.5586 22.7632
C 21.8742 20.5078 26.1477
C 22.5989 21.7963 22.7682
C 23.2893 20.5135 26.0463
C 19.8048 21.8884 15.9008
C 19.7667 21.8409 19.5901
C 20.5102 23.1244 16.0111
C 21.1927 21.8356 19.5561
C 19.7514 21.7906 22.7349
C 19.7342 21.7494 26.2839
C 20.4618 23.0287 22.767
C 21.1598 21.741 26.1781
C 21.9495 18.1772 15.7488
C 21.9363 18.138 19.6771
C 22.6769 19.4215 15.7624
C 23.3446 18.1206 19.6538
C 21.8824 18.0867 22.7568
C 21.873 18.0513 26.1168
C 22.6076 19.3277 22.7739
C 23.2711 18.0306 25.9959
C 19.7994 19.3845 15.7415
C 19.7778 19.3757 19.6334
C 20.5229 20.6494 15.8116
C 21.1895 19.3467 19.6468
C 19.7524 19.3006 22.6071
C 19.7534 19.2868 26.4078
C 20.4688 20.5557 22.7084
C 21.1524 19.2568 26.2289
C 21.9359 25.5943 16.1777
C 21.9028 25.5362 19.4851
C 22.6481 26.8277 16.2257
C 23.325 25.5359 19.4842
C 21.8855 25.4951 22.7602
C 21.8638 25.4461 26.0173
C 22.5974 26.7273 22.7531
C 23.2887 25.4456 25.9814
C 15.5579 29.3252 16.0623
C 15.49 29.246 19.502
C 16.2396 30.5409 16.1423
C 16.9272 29.2504 19.475
C 17.6715 28.0861 16.0505
C 17.6348 28.0157 19.4972
C 18.3812 29.3095 16.1435
C 19.0597 28.0075 19.4754
C 15.5072 29.2191 22.7283
C 15.4215 29.1374 26.1536
C 16.1926 30.4342 22.7079
C 16.873 29.1532 26.1438
C 17.6187 27.9737 22.7216
C 17.5896 27.9131 26.1727
C 18.3316 29.2005 22.7146
C 19.0121 27.9151 26.0992
C 19.8012 26.8341 16.1269
C 19.7685 26.7724 19.4852
C 20.5142 28.0673 16.1926
C 21.1923 26.7695 19.4792
C 19.7506 26.7304 22.7523
C 19.7253 26.6805 26.0781
C 20.4644 27.9626 22.7453
C 21.1518 26.6796 26.0195
C 21.9376 23.1254 16.0589
C 21.9038 23.0679 19.5109
C 22.6486 24.3601 16.1498
C 23.3286 23.069 19.5011
C 21.8844 23.0285 22.7646
C 21.8681 22.9765 26.0888
C 22.5961 24.2623 22.7596
C 23.2915 22.9785 26.028
C 15.5491 26.8637 15.8421
C 15.4723 26.7929 19.5986
C 16.2349 28.0931 15.9801
C 16.9199 26.7863 19.5567
C 17.6665 25.6121 15.9089
C 17.6309 25.5463 19.5515
C 18.3758 26.8434 16.0277
C 19.058 25.5409 19.506
C 15.4956 26.7434 22.6464
C 15.4231 26.6872 26.3946
C 16.1794 27.9771 22.7082
C 16.877 26.6838 26.2905
C 17.6177 25.498 22.6776
C 17.5916 25.4487 26.273
C 18.3263 26.7348 22.7243
C 19.0176 25.4473 26.151
C 19.7957 24.3634 16.0422
C 19.768 24.3054 19.5096
C 20.5093 25.5961 16.1218
C 21.1903 24.3019 19.497
C 19.7495 24.2631 22.7577
C 19.731 24.2126 26.1485
C 20.4602 25.4956 22.7598
C 21.1526 24.2107 26.0814
C 24.0655 16.9635 15.9899
C 24.1 16.9024 19.6144
C 24.8172 18.18 16.0249
C 25.4657 16.9122 19.5498
H 26.0216 15.9693 19.523
H 26.7436 17.2419 16.2659
C 24.0945 19.4204 15.9315
C 24.0664 19.3642 19.6
C 24.7988 20.6581 16.0541
C 25.4845 19.3707 19.5434
C 26.2091 18.1923 16.1743
C 26.2116 18.1346 19.5298
C 26.944 19.3942 16.2308
C 27.6081 18.1582 19.4997
C 24.0024 16.8741 22.7878
C 24.0287 16.8116 25.9388
C 24.7534 18.0956 22.7731
C 25.4161 16.8099 25.9346
H 25.9619 15.8622 25.911
H 26.6917 17.1677 22.7463
C 24.0238 19.3336 22.777
C 24.0096 19.2767 25.9848
C 24.7371 20.5658 22.7678
C 25.4358 19.278 25.9574
C 26.1457 18.1166 22.757
C 26.1752 18.0308 25.9486
C 26.8822 19.3253 22.7542
C 27.5776 18.0555 25.9811
H 28.1574 17.2103 19.491
H 28.1262 17.1079 25.9722
C 30.5082 20.6896 16.2973
C 30.4524 20.6002 19.4868
C 31.2146 21.8924 16.2552
C 31.8877 20.6425 19.4822
C 30.4293 20.5936 22.741
C 30.422 20.4974 26.0122
C 31.1394 21.7867 22.7402
C 31.8574 20.5355 26.0111
C 24.0736 24.3609 16.1842
C 24.0383 24.3031 19.4873
C 24.7864 25.595 16.2283
C 25.4599 24.3043 19.4863
C 26.2159 23.1314 16.2077
C 26.1748 23.0727 19.4907
C 26.9282 24.3646 16.2347
C 27.5982 23.0758 19.4873
C 24.02 24.2635 22.754
C 24.0028 24.2131 25.9854
C 24.7315 25.4951 22.7449
C 25.4268 24.2124 25.9691
C 26.1556 23.033 22.7488
C 26.1423 22.9791 25.9742
C 26.8667 24.2632 22.738
C 27.5663 22.9784 25.9823
C 28.3688 21.9017 16.2724
C 28.3144 21.8426 19.4906
C 29.0758 23.1361 16.2519
C 29.7375 21.8491 19.4872
C 28.2925 21.8029 22.743
C 28.2824 21.7427 25.9926
C 29.0035 23.0309 22.7372
C 29.7085 21.7461 26.0051
H 30.2966 18.4555 19.4894
H 31.0606 19.7462 16.3451
H 30.2629 18.3521 26.0084
H 30.9762 19.6458 22.7416
C 24.0812 21.8955 16.064
C 24.0466 21.8405 19.5209
C 24.789 23.127 16.159
C 25.4676 21.8402 19.5063
C 26.2154 20.653 16.1829
C 26.1884 20.6053 19.5133
C 26.9327 21.8962 16.2318
C 27.6079 20.6095 19.4976
C 24.0216 21.7993 22.7643
C 24.0062 21.7466 26.0145
C 24.7328 23.0313 22.7561
C 25.432 21.7462 25.9821
C 26.1584 20.5687 22.759
C 26.1523 20.5147 25.9756
C 26.87 21.7988 22.7505
C 27.5745 20.5117 25.9868
C 28.3643 19.4292 16.2758
C 28.3315 19.3664 19.4958
C 29.0968 20.6467 16.3058
C 29.7454 19.4023 19.4885
C 28.2886 19.3549 22.7446
C 28.2998 19.2644 25.994
C 29.0112 20.5571 22.7426
C 29.7122 19.2986 26.0117
H 32.4298 19.6912 19.4839
H 33.1854 20.9797 16.2472
H 32.3984 19.5829 26.0065
H 33.1122 20.8726 22.74
H 14.9636 32.6415 19.4185
H 14.9087 32.5535 25.9804
C 15.5538 31.7978 16.1826
C 15.4983 31.6871 19.4323
C 16.2348 32.9837 16.2014
C 16.932 31.723 19.4163
C 17.6736 30.5485 16.1648
C 17.6395 30.473 19.4388
C 18.3793 31.7752 16.187
C 19.063 30.4736 19.4367
H 15.6919 33.9341 16.2262
H 17.0999 33.8654 19.3711
C 17.6671 33.0233 16.1913
C 17.6463 32.917 19.3898
C 18.3786 34.2248 16.183
C 19.0611 32.9495 19.3974
C 15.5158 31.698 22.6851
C 15.4521 31.6065 26.0504
C 16.1941 32.8825 22.6051
C 16.8788 31.6512 26.1561
C 17.6254 30.4383 22.6813
C 17.5873 30.3865 26.1476
C 18.336 31.6641 22.604
C 19.0239 30.3882 26.1647
H 15.6527 33.8337 22.5734
H 17.0588 33.805 26.3015
C 17.6268 32.9195 22.5443
C 17.606 32.8563 26.2855
C 18.3519 34.1245 22.4943
C 19.0214 32.8761 26.3878
C 21.9406 30.5323 16.225
C 21.9073 30.4661 19.4623
C 22.6535 31.7642 16.2113
C 23.3279 30.4655 19.4792
C 21.8961 30.4268 22.7051
C 21.8684 30.382 26.0629
C 22.6123 31.6576 22.7021
C 23.2933 30.3799 26.0168
C 19.8039 31.7753 16.1919
C 19.7761 31.7017 19.4228
C 20.5129 33.0052 16.1808
C 21.1968 31.7023 19.4401
C 19.768 31.665 22.6098
C 19.7397 31.6173 26.2419
C 20.4874 32.8989 22.5833
C 21.1627 31.6201 26.1577
C 21.9387 28.0639 16.2321
C 21.9045 28.0015 19.4761
C 22.6523 29.2965 16.2456
C 23.3259 28.0004 19.4842
C 21.8883 27.9614 22.7448
C 21.8641 27.9133 25.9996
C 22.6028 29.1917 22.7301
C 23.288 27.9122 25.9758
C 19.807 29.3046 16.1913
C 19.7732 29.2373 19.456
C 20.5176 30.5368 16.2091
C 21.195 29.2357 19.4638
C 19.7584 29.197 22.7157
C 19.7289 29.1517 26.0879
C 20.4748 30.4262 22.6839
C 21.1533 29.1498 26.0454
C 21.9141 35.4778 16.2498
C 21.9321 35.3868 19.4424
C 22.6744 36.6963 16.3183
C 23.321 35.4043 19.4747
C 21.9005 35.3676 22.6569
C 21.9033 35.3028 26.1755
C 22.653 36.5879 22.7102
C 23.2973 35.3187 26.0978
H 19.976 36.4155 16.2098
H 21.3854 36.3354 19.4413
H 19.9682 36.3084 22.5432
H 21.361 36.2537 26.1989
C 21.9341 32.996 16.1969
C 21.911 32.932 19.4404
C 22.652 34.2302 16.2384
C 23.3297 32.9323 19.4662
C 21.9086 32.8953 22.6606
C 21.8852 32.8531 26.1571
C 22.6232 34.1248 22.6862
C 23.2998 32.8489 26.0739
H 17.8291 35.1726 16.1988
H 17.8052 35.072 22.4671
C 19.7882 34.2548 16.1761
C 19.7888 34.1521 19.3938
C 20.5157 35.4628 16.1921
C 21.1916 34.1776 19.4205
C 19.7721 34.1542 22.5198
C 19.7614 34.0783 26.3539
C 20.5104 35.3581 22.5726
C 21.171 34.1001 26.236
C 32.6455 21.9306 16.2295
C 32.5644 21.8263 19.4782
C 33.3271 23.1155 16.196
H 33.658 21.8411 19.4763
C 32.6427 24.3725 16.2032
C 32.5549 24.3014 19.4801
C 33.3252 25.5902 16.2023
H 33.6491 24.3024 19.479
H 34.4214 23.1246 16.1799
C 32.576 21.8264 22.7406
C 32.5385 21.7194 25.9997
C 33.2589 23.0068 22.7385
H 33.6336 21.7317 25.9831
C 32.5747 24.2692 22.7365
C 32.5319 24.1951 25.9835
C 33.2547 25.4832 22.7337
H 33.6266 24.1943 25.9626
H 34.354 23.0153 22.7366
C 32.6504 29.2786 16.31
C 32.5504 29.25 19.5208
C 33.3301 30.5476 16.3328
H 33.645 29.2506 19.5321
H 34.4264 28.0578 16.261
C 32.5788 29.1741 22.7323
C 32.5425 29.1309 25.9437
C 33.2651 30.435 22.7325
H 33.6364 29.1308 25.9193
H 34.3526 27.9566 22.7301
C 32.6466 26.8248 16.2325
C 32.5533 26.7752 19.4964
C 33.3315 28.0574 16.2553
H 34.4204 25.5876 16.1977
C 32.5751 26.7215 22.732
C 32.535 26.6643 25.9685
C 33.2568 27.9572 22.7314
H 34.3503 25.4819 22.7332
H 22.1307 37.643 16.3793
H 23.5186 37.5693 19.5194
H 22.1019 37.5338 22.7022
H 23.4901 37.4828 26.0606
C 24.0563 36.6939 16.3506
C 24.0748 36.6269 19.5067
H 24.6018 37.6367 16.4418
C 25.4392 36.6273 19.5259
C 26.213 35.4589 16.2695
C 26.189 35.4027 19.5203
H 26.7501 36.411 16.3132
C 27.5812 35.3828 19.5356
H 25.9939 37.5711 19.5535
C 24.0169 36.5812 22.7582
C 24.0457 36.5403 26.0668
H 24.5747 37.5218 22.7905
C 25.4129 36.5406 26.0455
C 26.1564 35.3355 22.772
C 26.1602 35.3184 26.0382
H 26.704 36.2829 22.7869
C 27.5564 35.3004 26.0324
H 25.9677 37.4842 26.0252
H 30.2719 35.0931 19.5522
H 30.246 35.0182 26.0047
H 28.1287 36.332 19.5508
H 28.1024 36.2501 26.0323
C 30.4828 32.9956 16.3166
C 30.4368 32.9475 19.538
H 31.0319 33.9419 16.3504
C 31.8721 32.9095 19.5449
C 30.4377 32.8551 22.7414
C 30.4146 32.8695 25.9533
H 30.9867 33.8022 22.7362
C 31.8542 32.8213 25.9455
C 28.3483 34.2282 16.2702
C 28.3123 34.1742 19.5331
C 29.724 34.1442 19.5421
C 28.2974 34.0967 22.7584
C 28.2865 34.0951 26.0111
C 29.6975 34.0703 26.0024
C 32.6364 31.7453 16.3561
C 32.5533 31.7271 19.5424
H 33.18 32.6932 16.3836
H 33.6472 31.7161 19.5556
H 34.4243 30.5456 16.3409
H 32.4112 33.8626 19.559
C 32.583 31.6172 22.7322
C 32.544 31.6218 25.9212
H 33.1215 32.5698 22.7238
H 33.637 31.6169 25.9025
H 34.3605 30.4255 22.7251
H 32.4009 33.769 25.9468
H 33.6288 26.6623 25.9468
H 19.2122 18.3409 26.5145
H 19.2218 35.0298 26.4075
H 14.4024 26.7493 22.5869
H 28.8447 35.0442 22.7614
H 33.6475 26.7758 19.5005
H 28.8357 18.4073 22.7362
H 19.2314 18.4311 19.7041
H 19.2424 35.1 19.379
H 28.8953 35.1759 16.309
H 14.4546 26.874 15.8
H 28.9111 18.4837 16.3219
Li 16.8654 21.893 14.1543
Li 16.0769 25.5626 17.7776
Li 31.132 31.5749 27.7018
Li 19.0666 20.4374 17.651
Li 31.9094 30.551 14.5688
Li 22.607 19.1966 17.8146
Li 16.0717 30.4296 27.8689
Li 19.018 33.0501 24.3683
Li 24.7344 18.0315 27.7231
Li 15.941 25.4252 24.5803
Li 27.7728 20.5947 14.498
Li 18.9651 20.2239 24.4375
Li 23.3959 35.4782 14.5136
Li 18.6505 33.7296 17.8569
